
---------- Begin Simulation Statistics ----------
simSeconds                                   1.218564                       # Number of seconds simulated (Second)
simTicks                                 1218564443000                       # Number of ticks simulated (Tick)
finalTick                                5807010553000                       # Number of ticks from beginning of simulation (restored from checkpoints and never reset) (Tick)
simFreq                                  1000000000000                       # The number of ticks per simulated second ((Tick/Second))
hostSeconds                                   3416.21                       # Real time elapsed on the host (Second)
hostTickRate                                356700265                       # The number of ticks simulated per host second (ticks/s) ((Tick/Second))
hostMemory                                   11576268                       # Number of bytes of host memory used (Byte)
simInsts                                   5239676062                       # Number of instructions simulated (Count)
simOps                                     8355292068                       # Number of ops (including micro ops) simulated (Count)
hostInstRate                                  1533767                       # Simulator instruction rate (inst/s) ((Count/Second))
hostOpRate                                    2445775                       # Simulator op (including micro ops) rate (op/s) ((Count/Second))
system.apicbridge.power_state.pwrStateResidencyTicks::UNDEFINED 5807010553000                       # Cumulative time (in ticks) in various power states (Tick)
system.bridge.power_state.pwrStateResidencyTicks::UNDEFINED 5807010553000                       # Cumulative time (in ticks) in various power states (Tick)
system.clk_domain.clock                          1000                       # Clock period in ticks (Tick)
system.cpu0.numCycles                      2436855344                       # Number of cpu cycles simulated (Cycle)
system.cpu0.numWorkItemsStarted                     0                       # Number of work items this cpu started (Count)
system.cpu0.numWorkItemsCompleted                   0                       # Number of work items this cpu completed (Count)
system.cpu0.exec_context.thread_0.numInsts   1219009367                       # Number of instructions committed (Count)
system.cpu0.exec_context.thread_0.numOps   1745847632                       # Number of ops (including micro ops) committed (Count)
system.cpu0.exec_context.thread_0.numIntAluAccesses   1560161928                       # Number of integer alu accesses (Count)
system.cpu0.exec_context.thread_0.numFpAluAccesses    330217588                       # Number of float alu accesses (Count)
system.cpu0.exec_context.thread_0.numVecAluAccesses            0                       # Number of vector alu accesses (Count)
system.cpu0.exec_context.thread_0.numCallsReturns      4025199                       # Number of times a function call or return occured (Count)
system.cpu0.exec_context.thread_0.numCondCtrlInsts     79705235                       # Number of instructions that are conditional controls (Count)
system.cpu0.exec_context.thread_0.numIntInsts   1560161928                       # Number of integer instructions (Count)
system.cpu0.exec_context.thread_0.numFpInsts    330217588                       # Number of float instructions (Count)
system.cpu0.exec_context.thread_0.numVecInsts            0                       # Number of vector instructions (Count)
system.cpu0.exec_context.thread_0.numIntRegReads   2080694551                       # Number of times the integer registers were read (Count)
system.cpu0.exec_context.thread_0.numIntRegWrites   1170382538                       # Number of times the integer registers were written (Count)
system.cpu0.exec_context.thread_0.numFpRegReads    230108994                       # Number of times the floating registers were read (Count)
system.cpu0.exec_context.thread_0.numFpRegWrites    266891944                       # Number of times the floating registers were written (Count)
system.cpu0.exec_context.thread_0.numVecRegReads            0                       # Number of times the vector registers were read (Count)
system.cpu0.exec_context.thread_0.numVecRegWrites            0                       # Number of times the vector registers were written (Count)
system.cpu0.exec_context.thread_0.numVecPredRegReads            0                       # Number of times the predicate registers were read (Count)
system.cpu0.exec_context.thread_0.numVecPredRegWrites            0                       # Number of times the predicate registers were written (Count)
system.cpu0.exec_context.thread_0.numCCRegReads    521412018                       # Number of times the CC registers were read (Count)
system.cpu0.exec_context.thread_0.numCCRegWrites    717384911                       # Number of times the CC registers were written (Count)
system.cpu0.exec_context.thread_0.numMiscRegReads    845428726                       # Number of times the Misc registers were read (Count)
system.cpu0.exec_context.thread_0.numMiscRegWrites        87743                       # Number of times the Misc registers were written (Count)
system.cpu0.exec_context.thread_0.numMemRefs    667467744                       # Number of memory refs (Count)
system.cpu0.exec_context.thread_0.numLoadInsts    528337485                       # Number of load instructions (Count)
system.cpu0.exec_context.thread_0.numStoreInsts    139130259                       # Number of store instructions (Count)
system.cpu0.exec_context.thread_0.numIdleCycles 192723256.421852                       # Number of idle cycles (Cycle)
system.cpu0.exec_context.thread_0.numBusyCycles 2244132087.578148                       # Number of busy cycles (Cycle)
system.cpu0.exec_context.thread_0.notIdleFraction     0.920913                       # Percentage of non-idle cycles (Ratio)
system.cpu0.exec_context.thread_0.idleFraction     0.079087                       # Percentage of idle cycles (Ratio)
system.cpu0.exec_context.thread_0.numBranches     89898655                       # Number of branches fetched (Count)
system.cpu0.exec_context.thread_0.statExecutedInstType::No_OpClass        28148      0.00%      0.00% # Class of executed instruction. (Count)
system.cpu0.exec_context.thread_0.statExecutedInstType::IntAlu    893272845     51.17%     51.17% # Class of executed instruction. (Count)
system.cpu0.exec_context.thread_0.statExecutedInstType::IntMult       233778      0.01%     51.18% # Class of executed instruction. (Count)
system.cpu0.exec_context.thread_0.statExecutedInstType::IntDiv       113674      0.01%     51.19% # Class of executed instruction. (Count)
system.cpu0.exec_context.thread_0.statExecutedInstType::FloatAdd    112914530      6.47%     57.65% # Class of executed instruction. (Count)
system.cpu0.exec_context.thread_0.statExecutedInstType::FloatCmp            0      0.00%     57.65% # Class of executed instruction. (Count)
system.cpu0.exec_context.thread_0.statExecutedInstType::FloatCvt         3200      0.00%     57.65% # Class of executed instruction. (Count)
system.cpu0.exec_context.thread_0.statExecutedInstType::FloatMult            0      0.00%     57.65% # Class of executed instruction. (Count)
system.cpu0.exec_context.thread_0.statExecutedInstType::FloatMultAcc            0      0.00%     57.65% # Class of executed instruction. (Count)
system.cpu0.exec_context.thread_0.statExecutedInstType::FloatDiv            0      0.00%     57.65% # Class of executed instruction. (Count)
system.cpu0.exec_context.thread_0.statExecutedInstType::FloatMisc            0      0.00%     57.65% # Class of executed instruction. (Count)
system.cpu0.exec_context.thread_0.statExecutedInstType::FloatSqrt            0      0.00%     57.65% # Class of executed instruction. (Count)
system.cpu0.exec_context.thread_0.statExecutedInstType::SimdAdd         3366      0.00%     57.66% # Class of executed instruction. (Count)
system.cpu0.exec_context.thread_0.statExecutedInstType::SimdAddAcc            0      0.00%     57.66% # Class of executed instruction. (Count)
system.cpu0.exec_context.thread_0.statExecutedInstType::SimdAlu      3352382      0.19%     57.85% # Class of executed instruction. (Count)
system.cpu0.exec_context.thread_0.statExecutedInstType::SimdCmp            0      0.00%     57.85% # Class of executed instruction. (Count)
system.cpu0.exec_context.thread_0.statExecutedInstType::SimdCvt         4578      0.00%     57.85% # Class of executed instruction. (Count)
system.cpu0.exec_context.thread_0.statExecutedInstType::SimdMisc      1628570      0.09%     57.94% # Class of executed instruction. (Count)
system.cpu0.exec_context.thread_0.statExecutedInstType::SimdMult            0      0.00%     57.94% # Class of executed instruction. (Count)
system.cpu0.exec_context.thread_0.statExecutedInstType::SimdMultAcc            0      0.00%     57.94% # Class of executed instruction. (Count)
system.cpu0.exec_context.thread_0.statExecutedInstType::SimdShift         1674      0.00%     57.94% # Class of executed instruction. (Count)
system.cpu0.exec_context.thread_0.statExecutedInstType::SimdShiftAcc            0      0.00%     57.94% # Class of executed instruction. (Count)
system.cpu0.exec_context.thread_0.statExecutedInstType::SimdDiv            0      0.00%     57.94% # Class of executed instruction. (Count)
system.cpu0.exec_context.thread_0.statExecutedInstType::SimdSqrt            0      0.00%     57.94% # Class of executed instruction. (Count)
system.cpu0.exec_context.thread_0.statExecutedInstType::SimdFloatAdd     30589839      1.75%     59.69% # Class of executed instruction. (Count)
system.cpu0.exec_context.thread_0.statExecutedInstType::SimdFloatAlu            0      0.00%     59.69% # Class of executed instruction. (Count)
system.cpu0.exec_context.thread_0.statExecutedInstType::SimdFloatCmp            0      0.00%     59.69% # Class of executed instruction. (Count)
system.cpu0.exec_context.thread_0.statExecutedInstType::SimdFloatCvt     27716800      1.59%     61.28% # Class of executed instruction. (Count)
system.cpu0.exec_context.thread_0.statExecutedInstType::SimdFloatDiv       180886      0.01%     61.29% # Class of executed instruction. (Count)
system.cpu0.exec_context.thread_0.statExecutedInstType::SimdFloatMisc            0      0.00%     61.29% # Class of executed instruction. (Count)
system.cpu0.exec_context.thread_0.statExecutedInstType::SimdFloatMult      7864166      0.45%     61.74% # Class of executed instruction. (Count)
system.cpu0.exec_context.thread_0.statExecutedInstType::SimdFloatMultAcc            0      0.00%     61.74% # Class of executed instruction. (Count)
system.cpu0.exec_context.thread_0.statExecutedInstType::SimdFloatSqrt       472324      0.03%     61.77% # Class of executed instruction. (Count)
system.cpu0.exec_context.thread_0.statExecutedInstType::SimdReduceAdd            0      0.00%     61.77% # Class of executed instruction. (Count)
system.cpu0.exec_context.thread_0.statExecutedInstType::SimdReduceAlu            0      0.00%     61.77% # Class of executed instruction. (Count)
system.cpu0.exec_context.thread_0.statExecutedInstType::SimdReduceCmp            0      0.00%     61.77% # Class of executed instruction. (Count)
system.cpu0.exec_context.thread_0.statExecutedInstType::SimdFloatReduceAdd            0      0.00%     61.77% # Class of executed instruction. (Count)
system.cpu0.exec_context.thread_0.statExecutedInstType::SimdFloatReduceCmp            0      0.00%     61.77% # Class of executed instruction. (Count)
system.cpu0.exec_context.thread_0.statExecutedInstType::SimdAes            0      0.00%     61.77% # Class of executed instruction. (Count)
system.cpu0.exec_context.thread_0.statExecutedInstType::SimdAesMix            0      0.00%     61.77% # Class of executed instruction. (Count)
system.cpu0.exec_context.thread_0.statExecutedInstType::SimdSha1Hash            0      0.00%     61.77% # Class of executed instruction. (Count)
system.cpu0.exec_context.thread_0.statExecutedInstType::SimdSha1Hash2            0      0.00%     61.77% # Class of executed instruction. (Count)
system.cpu0.exec_context.thread_0.statExecutedInstType::SimdSha256Hash            0      0.00%     61.77% # Class of executed instruction. (Count)
system.cpu0.exec_context.thread_0.statExecutedInstType::SimdSha256Hash2            0      0.00%     61.77% # Class of executed instruction. (Count)
system.cpu0.exec_context.thread_0.statExecutedInstType::SimdShaSigma2            0      0.00%     61.77% # Class of executed instruction. (Count)
system.cpu0.exec_context.thread_0.statExecutedInstType::SimdShaSigma3            0      0.00%     61.77% # Class of executed instruction. (Count)
system.cpu0.exec_context.thread_0.statExecutedInstType::SimdPredAlu            0      0.00%     61.77% # Class of executed instruction. (Count)
system.cpu0.exec_context.thread_0.statExecutedInstType::MemRead    431053000     24.69%     86.46% # Class of executed instruction. (Count)
system.cpu0.exec_context.thread_0.statExecutedInstType::MemWrite     92177892      5.28%     91.74% # Class of executed instruction. (Count)
system.cpu0.exec_context.thread_0.statExecutedInstType::FloatMemRead     97284485      5.57%     97.31% # Class of executed instruction. (Count)
system.cpu0.exec_context.thread_0.statExecutedInstType::FloatMemWrite     46952367      2.69%    100.00% # Class of executed instruction. (Count)
system.cpu0.exec_context.thread_0.statExecutedInstType::IprAccess            0      0.00%    100.00% # Class of executed instruction. (Count)
system.cpu0.exec_context.thread_0.statExecutedInstType::InstPrefetch            0      0.00%    100.00% # Class of executed instruction. (Count)
system.cpu0.exec_context.thread_0.statExecutedInstType::total   1745848504                       # Class of executed instruction. (Count)
system.cpu0.interrupts.clk_domain.clock          8000                       # Clock period in ticks (Tick)
system.cpu0.mmu.dtb.rdAccesses              531102037                       # TLB accesses on read requests (Count)
system.cpu0.mmu.dtb.wrAccesses              139134142                       # TLB accesses on write requests (Count)
system.cpu0.mmu.dtb.rdMisses                    58361                       # TLB misses on read requests (Count)
system.cpu0.mmu.dtb.wrMisses                    30917                       # TLB misses on write requests (Count)
system.cpu0.mmu.dtb.walker.power_state.pwrStateResidencyTicks::UNDEFINED 5807010553000                       # Cumulative time (in ticks) in various power states (Tick)
system.cpu0.mmu.itb.rdAccesses                      0                       # TLB accesses on read requests (Count)
system.cpu0.mmu.itb.wrAccesses             1717617798                       # TLB accesses on write requests (Count)
system.cpu0.mmu.itb.rdMisses                        0                       # TLB misses on read requests (Count)
system.cpu0.mmu.itb.wrMisses                     1461                       # TLB misses on write requests (Count)
system.cpu0.mmu.itb.walker.power_state.pwrStateResidencyTicks::UNDEFINED 5807010553000                       # Cumulative time (in ticks) in various power states (Tick)
system.cpu0.power_state.numTransitions            236                       # Number of power state transitions (Count)
system.cpu0.power_state.ticksClkGated::samples          119                       # Distribution of time spent in the clock gated state (Tick)
system.cpu0.power_state.ticksClkGated::mean 810569386.554622                       # Distribution of time spent in the clock gated state (Tick)
system.cpu0.power_state.ticksClkGated::stdev 323803101.550506                       # Distribution of time spent in the clock gated state (Tick)
system.cpu0.power_state.ticksClkGated::1000-5e+10          119    100.00%    100.00% # Distribution of time spent in the clock gated state (Tick)
system.cpu0.power_state.ticksClkGated::min_value     34129500                       # Distribution of time spent in the clock gated state (Tick)
system.cpu0.power_state.ticksClkGated::max_value    997002000                       # Distribution of time spent in the clock gated state (Tick)
system.cpu0.power_state.ticksClkGated::total          119                       # Distribution of time spent in the clock gated state (Tick)
system.cpu0.power_state.pwrStateResidencyTicks::ON 1122191998000                       # Cumulative time (in ticks) in various power states (Tick)
system.cpu0.power_state.pwrStateResidencyTicks::CLK_GATED  96457757000                       # Cumulative time (in ticks) in various power states (Tick)
system.cpu0.thread_0.numInsts                       0                       # Number of Instructions committed (Count)
system.cpu0.thread_0.numOps                         0                       # Number of Ops committed (Count)
system.cpu0.thread_0.numMemRefs                     0                       # Number of Memory References (Count)
system.cpu1.numCycles                      2436651890                       # Number of cpu cycles simulated (Cycle)
system.cpu1.numWorkItemsStarted                     0                       # Number of work items this cpu started (Count)
system.cpu1.numWorkItemsCompleted                   0                       # Number of work items this cpu completed (Count)
system.cpu1.exec_context.thread_0.numInsts    935183846                       # Number of instructions committed (Count)
system.cpu1.exec_context.thread_0.numOps   1345710742                       # Number of ops (including micro ops) committed (Count)
system.cpu1.exec_context.thread_0.numIntAluAccesses   1193159617                       # Number of integer alu accesses (Count)
system.cpu1.exec_context.thread_0.numFpAluAccesses    258229263                       # Number of float alu accesses (Count)
system.cpu1.exec_context.thread_0.numVecAluAccesses            0                       # Number of vector alu accesses (Count)
system.cpu1.exec_context.thread_0.numCallsReturns      5307305                       # Number of times a function call or return occured (Count)
system.cpu1.exec_context.thread_0.numCondCtrlInsts     57321509                       # Number of instructions that are conditional controls (Count)
system.cpu1.exec_context.thread_0.numIntInsts   1193159617                       # Number of integer instructions (Count)
system.cpu1.exec_context.thread_0.numFpInsts    258229263                       # Number of float instructions (Count)
system.cpu1.exec_context.thread_0.numVecInsts            0                       # Number of vector instructions (Count)
system.cpu1.exec_context.thread_0.numIntRegReads   1599111290                       # Number of times the integer registers were read (Count)
system.cpu1.exec_context.thread_0.numIntRegWrites    904218021                       # Number of times the integer registers were written (Count)
system.cpu1.exec_context.thread_0.numFpRegReads    210306245                       # Number of times the floating registers were read (Count)
system.cpu1.exec_context.thread_0.numFpRegWrites    213923239                       # Number of times the floating registers were written (Count)
system.cpu1.exec_context.thread_0.numVecRegReads            0                       # Number of times the vector registers were read (Count)
system.cpu1.exec_context.thread_0.numVecRegWrites            0                       # Number of times the vector registers were written (Count)
system.cpu1.exec_context.thread_0.numVecPredRegReads            0                       # Number of times the predicate registers were read (Count)
system.cpu1.exec_context.thread_0.numVecPredRegWrites            0                       # Number of times the predicate registers were written (Count)
system.cpu1.exec_context.thread_0.numCCRegReads    378934239                       # Number of times the CC registers were read (Count)
system.cpu1.exec_context.thread_0.numCCRegWrites    531962729                       # Number of times the CC registers were written (Count)
system.cpu1.exec_context.thread_0.numMiscRegReads    635112450                       # Number of times the Misc registers were read (Count)
system.cpu1.exec_context.thread_0.numMiscRegWrites        87280                       # Number of times the Misc registers were written (Count)
system.cpu1.exec_context.thread_0.numMemRefs    498025476                       # Number of memory refs (Count)
system.cpu1.exec_context.thread_0.numLoadInsts    395864267                       # Number of load instructions (Count)
system.cpu1.exec_context.thread_0.numStoreInsts    102161209                       # Number of store instructions (Count)
system.cpu1.exec_context.thread_0.numIdleCycles 721395706.216438                       # Number of idle cycles (Cycle)
system.cpu1.exec_context.thread_0.numBusyCycles 1715256183.783562                       # Number of busy cycles (Cycle)
system.cpu1.exec_context.thread_0.notIdleFraction     0.703940                       # Percentage of non-idle cycles (Ratio)
system.cpu1.exec_context.thread_0.idleFraction     0.296060                       # Percentage of idle cycles (Ratio)
system.cpu1.exec_context.thread_0.numBranches     68245324                       # Number of branches fetched (Count)
system.cpu1.exec_context.thread_0.statExecutedInstType::No_OpClass        20931      0.00%      0.00% # Class of executed instruction. (Count)
system.cpu1.exec_context.thread_0.statExecutedInstType::IntAlu    699071075     51.95%     51.95% # Class of executed instruction. (Count)
system.cpu1.exec_context.thread_0.statExecutedInstType::IntMult       252423      0.02%     51.97% # Class of executed instruction. (Count)
system.cpu1.exec_context.thread_0.statExecutedInstType::IntDiv        89416      0.01%     51.98% # Class of executed instruction. (Count)
system.cpu1.exec_context.thread_0.statExecutedInstType::FloatAdd     81506956      6.06%     58.03% # Class of executed instruction. (Count)
system.cpu1.exec_context.thread_0.statExecutedInstType::FloatCmp            0      0.00%     58.03% # Class of executed instruction. (Count)
system.cpu1.exec_context.thread_0.statExecutedInstType::FloatCvt         1840      0.00%     58.03% # Class of executed instruction. (Count)
system.cpu1.exec_context.thread_0.statExecutedInstType::FloatMult            0      0.00%     58.03% # Class of executed instruction. (Count)
system.cpu1.exec_context.thread_0.statExecutedInstType::FloatMultAcc            0      0.00%     58.03% # Class of executed instruction. (Count)
system.cpu1.exec_context.thread_0.statExecutedInstType::FloatDiv            0      0.00%     58.03% # Class of executed instruction. (Count)
system.cpu1.exec_context.thread_0.statExecutedInstType::FloatMisc            0      0.00%     58.03% # Class of executed instruction. (Count)
system.cpu1.exec_context.thread_0.statExecutedInstType::FloatSqrt            0      0.00%     58.03% # Class of executed instruction. (Count)
system.cpu1.exec_context.thread_0.statExecutedInstType::SimdAdd         2992      0.00%     58.03% # Class of executed instruction. (Count)
system.cpu1.exec_context.thread_0.statExecutedInstType::SimdAddAcc            0      0.00%     58.03% # Class of executed instruction. (Count)
system.cpu1.exec_context.thread_0.statExecutedInstType::SimdAlu      6349428      0.47%     58.50% # Class of executed instruction. (Count)
system.cpu1.exec_context.thread_0.statExecutedInstType::SimdCmp            0      0.00%     58.50% # Class of executed instruction. (Count)
system.cpu1.exec_context.thread_0.statExecutedInstType::SimdCvt          736      0.00%     58.50% # Class of executed instruction. (Count)
system.cpu1.exec_context.thread_0.statExecutedInstType::SimdMisc      3931840      0.29%     58.80% # Class of executed instruction. (Count)
system.cpu1.exec_context.thread_0.statExecutedInstType::SimdMult            0      0.00%     58.80% # Class of executed instruction. (Count)
system.cpu1.exec_context.thread_0.statExecutedInstType::SimdMultAcc            0      0.00%     58.80% # Class of executed instruction. (Count)
system.cpu1.exec_context.thread_0.statExecutedInstType::SimdShift         1488      0.00%     58.80% # Class of executed instruction. (Count)
system.cpu1.exec_context.thread_0.statExecutedInstType::SimdShiftAcc            0      0.00%     58.80% # Class of executed instruction. (Count)
system.cpu1.exec_context.thread_0.statExecutedInstType::SimdDiv            0      0.00%     58.80% # Class of executed instruction. (Count)
system.cpu1.exec_context.thread_0.statExecutedInstType::SimdSqrt            0      0.00%     58.80% # Class of executed instruction. (Count)
system.cpu1.exec_context.thread_0.statExecutedInstType::SimdFloatAdd     25832599      1.92%     60.72% # Class of executed instruction. (Count)
system.cpu1.exec_context.thread_0.statExecutedInstType::SimdFloatAlu            0      0.00%     60.72% # Class of executed instruction. (Count)
system.cpu1.exec_context.thread_0.statExecutedInstType::SimdFloatCmp            0      0.00%     60.72% # Class of executed instruction. (Count)
system.cpu1.exec_context.thread_0.statExecutedInstType::SimdFloatCvt     20779207      1.54%     62.26% # Class of executed instruction. (Count)
system.cpu1.exec_context.thread_0.statExecutedInstType::SimdFloatDiv       580630      0.04%     62.30% # Class of executed instruction. (Count)
system.cpu1.exec_context.thread_0.statExecutedInstType::SimdFloatMisc            0      0.00%     62.30% # Class of executed instruction. (Count)
system.cpu1.exec_context.thread_0.statExecutedInstType::SimdFloatMult      8830834      0.66%     62.96% # Class of executed instruction. (Count)
system.cpu1.exec_context.thread_0.statExecutedInstType::SimdFloatMultAcc            0      0.00%     62.96% # Class of executed instruction. (Count)
system.cpu1.exec_context.thread_0.statExecutedInstType::SimdFloatSqrt       434117      0.03%     62.99% # Class of executed instruction. (Count)
system.cpu1.exec_context.thread_0.statExecutedInstType::SimdReduceAdd            0      0.00%     62.99% # Class of executed instruction. (Count)
system.cpu1.exec_context.thread_0.statExecutedInstType::SimdReduceAlu            0      0.00%     62.99% # Class of executed instruction. (Count)
system.cpu1.exec_context.thread_0.statExecutedInstType::SimdReduceCmp            0      0.00%     62.99% # Class of executed instruction. (Count)
system.cpu1.exec_context.thread_0.statExecutedInstType::SimdFloatReduceAdd            0      0.00%     62.99% # Class of executed instruction. (Count)
system.cpu1.exec_context.thread_0.statExecutedInstType::SimdFloatReduceCmp            0      0.00%     62.99% # Class of executed instruction. (Count)
system.cpu1.exec_context.thread_0.statExecutedInstType::SimdAes            0      0.00%     62.99% # Class of executed instruction. (Count)
system.cpu1.exec_context.thread_0.statExecutedInstType::SimdAesMix            0      0.00%     62.99% # Class of executed instruction. (Count)
system.cpu1.exec_context.thread_0.statExecutedInstType::SimdSha1Hash            0      0.00%     62.99% # Class of executed instruction. (Count)
system.cpu1.exec_context.thread_0.statExecutedInstType::SimdSha1Hash2            0      0.00%     62.99% # Class of executed instruction. (Count)
system.cpu1.exec_context.thread_0.statExecutedInstType::SimdSha256Hash            0      0.00%     62.99% # Class of executed instruction. (Count)
system.cpu1.exec_context.thread_0.statExecutedInstType::SimdSha256Hash2            0      0.00%     62.99% # Class of executed instruction. (Count)
system.cpu1.exec_context.thread_0.statExecutedInstType::SimdShaSigma2            0      0.00%     62.99% # Class of executed instruction. (Count)
system.cpu1.exec_context.thread_0.statExecutedInstType::SimdShaSigma3            0      0.00%     62.99% # Class of executed instruction. (Count)
system.cpu1.exec_context.thread_0.statExecutedInstType::SimdPredAlu            0      0.00%     62.99% # Class of executed instruction. (Count)
system.cpu1.exec_context.thread_0.statExecutedInstType::MemRead    324529668     24.12%     87.11% # Class of executed instruction. (Count)
system.cpu1.exec_context.thread_0.statExecutedInstType::MemWrite     70364543      5.23%     92.34% # Class of executed instruction. (Count)
system.cpu1.exec_context.thread_0.statExecutedInstType::FloatMemRead     71334599      5.30%     97.64% # Class of executed instruction. (Count)
system.cpu1.exec_context.thread_0.statExecutedInstType::FloatMemWrite     31796666      2.36%    100.00% # Class of executed instruction. (Count)
system.cpu1.exec_context.thread_0.statExecutedInstType::IprAccess            0      0.00%    100.00% # Class of executed instruction. (Count)
system.cpu1.exec_context.thread_0.statExecutedInstType::InstPrefetch            0      0.00%    100.00% # Class of executed instruction. (Count)
system.cpu1.exec_context.thread_0.statExecutedInstType::total   1345711988                       # Class of executed instruction. (Count)
system.cpu1.interrupts.clk_domain.clock          8000                       # Clock period in ticks (Tick)
system.cpu1.mmu.dtb.rdAccesses              397408740                       # TLB accesses on read requests (Count)
system.cpu1.mmu.dtb.wrAccesses              102173217                       # TLB accesses on write requests (Count)
system.cpu1.mmu.dtb.rdMisses                    88471                       # TLB misses on read requests (Count)
system.cpu1.mmu.dtb.wrMisses                    20762                       # TLB misses on write requests (Count)
system.cpu1.mmu.dtb.walker.power_state.pwrStateResidencyTicks::UNDEFINED 5807010553000                       # Cumulative time (in ticks) in various power states (Tick)
system.cpu1.mmu.itb.rdAccesses                      0                       # TLB accesses on read requests (Count)
system.cpu1.mmu.itb.wrAccesses             1305135312                       # TLB accesses on write requests (Count)
system.cpu1.mmu.itb.rdMisses                        0                       # TLB misses on read requests (Count)
system.cpu1.mmu.itb.wrMisses                      881                       # TLB misses on write requests (Count)
system.cpu1.mmu.itb.walker.power_state.pwrStateResidencyTicks::UNDEFINED 5807010553000                       # Cumulative time (in ticks) in various power states (Tick)
system.cpu1.power_state.numTransitions            761                       # Number of power state transitions (Count)
system.cpu1.power_state.ticksClkGated::samples          381                       # Distribution of time spent in the clock gated state (Tick)
system.cpu1.power_state.ticksClkGated::mean 946898852.700787                       # Distribution of time spent in the clock gated state (Tick)
system.cpu1.power_state.ticksClkGated::stdev 202091816.689433                       # Distribution of time spent in the clock gated state (Tick)
system.cpu1.power_state.ticksClkGated::1000-5e+10          381    100.00%    100.00% # Distribution of time spent in the clock gated state (Tick)
system.cpu1.power_state.ticksClkGated::min_value     13402500                       # Distribution of time spent in the clock gated state (Tick)
system.cpu1.power_state.ticksClkGated::max_value    997974000                       # Distribution of time spent in the clock gated state (Tick)
system.cpu1.power_state.ticksClkGated::total          381                       # Distribution of time spent in the clock gated state (Tick)
system.cpu1.power_state.pwrStateResidencyTicks::ON 857800428121                       # Cumulative time (in ticks) in various power states (Tick)
system.cpu1.power_state.pwrStateResidencyTicks::CLK_GATED 360768462879                       # Cumulative time (in ticks) in various power states (Tick)
system.cpu1.thread_0.numInsts                       0                       # Number of Instructions committed (Count)
system.cpu1.thread_0.numOps                         0                       # Number of Ops committed (Count)
system.cpu1.thread_0.numMemRefs                     0                       # Number of Memory References (Count)
system.cpu2.numCycles                      2437220941                       # Number of cpu cycles simulated (Cycle)
system.cpu2.numWorkItemsStarted                     0                       # Number of work items this cpu started (Count)
system.cpu2.numWorkItemsCompleted                   0                       # Number of work items this cpu completed (Count)
system.cpu2.exec_context.thread_0.numInsts   1234076688                       # Number of instructions committed (Count)
system.cpu2.exec_context.thread_0.numOps   1753538174                       # Number of ops (including micro ops) committed (Count)
system.cpu2.exec_context.thread_0.numIntAluAccesses   1562103392                       # Number of integer alu accesses (Count)
system.cpu2.exec_context.thread_0.numFpAluAccesses    315791776                       # Number of float alu accesses (Count)
system.cpu2.exec_context.thread_0.numVecAluAccesses            0                       # Number of vector alu accesses (Count)
system.cpu2.exec_context.thread_0.numCallsReturns      6435094                       # Number of times a function call or return occured (Count)
system.cpu2.exec_context.thread_0.numCondCtrlInsts     76159800                       # Number of instructions that are conditional controls (Count)
system.cpu2.exec_context.thread_0.numIntInsts   1562103392                       # Number of integer instructions (Count)
system.cpu2.exec_context.thread_0.numFpInsts    315791776                       # Number of float instructions (Count)
system.cpu2.exec_context.thread_0.numVecInsts            0                       # Number of vector instructions (Count)
system.cpu2.exec_context.thread_0.numIntRegReads   2111421799                       # Number of times the integer registers were read (Count)
system.cpu2.exec_context.thread_0.numIntRegWrites   1198369891                       # Number of times the integer registers were written (Count)
system.cpu2.exec_context.thread_0.numFpRegReads    271976582                       # Number of times the floating registers were read (Count)
system.cpu2.exec_context.thread_0.numFpRegWrites    266181808                       # Number of times the floating registers were written (Count)
system.cpu2.exec_context.thread_0.numVecRegReads            0                       # Number of times the vector registers were read (Count)
system.cpu2.exec_context.thread_0.numVecRegWrites            0                       # Number of times the vector registers were written (Count)
system.cpu2.exec_context.thread_0.numVecPredRegReads            0                       # Number of times the predicate registers were read (Count)
system.cpu2.exec_context.thread_0.numVecPredRegWrites            0                       # Number of times the predicate registers were written (Count)
system.cpu2.exec_context.thread_0.numCCRegReads    506450373                       # Number of times the CC registers were read (Count)
system.cpu2.exec_context.thread_0.numCCRegWrites    716889328                       # Number of times the CC registers were written (Count)
system.cpu2.exec_context.thread_0.numMiscRegReads    816002263                       # Number of times the Misc registers were read (Count)
system.cpu2.exec_context.thread_0.numMiscRegWrites        96021                       # Number of times the Misc registers were written (Count)
system.cpu2.exec_context.thread_0.numMemRefs    635371756                       # Number of memory refs (Count)
system.cpu2.exec_context.thread_0.numLoadInsts    511335802                       # Number of load instructions (Count)
system.cpu2.exec_context.thread_0.numStoreInsts    124035954                       # Number of store instructions (Count)
system.cpu2.exec_context.thread_0.numIdleCycles 191190711.364406                       # Number of idle cycles (Cycle)
system.cpu2.exec_context.thread_0.numBusyCycles 2246030229.635594                       # Number of busy cycles (Cycle)
system.cpu2.exec_context.thread_0.notIdleFraction     0.921554                       # Percentage of non-idle cycles (Ratio)
system.cpu2.exec_context.thread_0.idleFraction     0.078446                       # Percentage of idle cycles (Ratio)
system.cpu2.exec_context.thread_0.numBranches     89752971                       # Number of branches fetched (Count)
system.cpu2.exec_context.thread_0.statExecutedInstType::No_OpClass        22469      0.00%      0.00% # Class of executed instruction. (Count)
system.cpu2.exec_context.thread_0.statExecutedInstType::IntAlu    933074002     53.21%     53.21% # Class of executed instruction. (Count)
system.cpu2.exec_context.thread_0.statExecutedInstType::IntMult       248715      0.01%     53.23% # Class of executed instruction. (Count)
system.cpu2.exec_context.thread_0.statExecutedInstType::IntDiv        85914      0.00%     53.23% # Class of executed instruction. (Count)
system.cpu2.exec_context.thread_0.statExecutedInstType::FloatAdd     95170353      5.43%     58.66% # Class of executed instruction. (Count)
system.cpu2.exec_context.thread_0.statExecutedInstType::FloatCmp            0      0.00%     58.66% # Class of executed instruction. (Count)
system.cpu2.exec_context.thread_0.statExecutedInstType::FloatCvt         2128      0.00%     58.66% # Class of executed instruction. (Count)
system.cpu2.exec_context.thread_0.statExecutedInstType::FloatMult            0      0.00%     58.66% # Class of executed instruction. (Count)
system.cpu2.exec_context.thread_0.statExecutedInstType::FloatMultAcc            0      0.00%     58.66% # Class of executed instruction. (Count)
system.cpu2.exec_context.thread_0.statExecutedInstType::FloatDiv            0      0.00%     58.66% # Class of executed instruction. (Count)
system.cpu2.exec_context.thread_0.statExecutedInstType::FloatMisc            0      0.00%     58.66% # Class of executed instruction. (Count)
system.cpu2.exec_context.thread_0.statExecutedInstType::FloatSqrt            0      0.00%     58.66% # Class of executed instruction. (Count)
system.cpu2.exec_context.thread_0.statExecutedInstType::SimdAdd          192      0.00%     58.66% # Class of executed instruction. (Count)
system.cpu2.exec_context.thread_0.statExecutedInstType::SimdAddAcc            0      0.00%     58.66% # Class of executed instruction. (Count)
system.cpu2.exec_context.thread_0.statExecutedInstType::SimdAlu      8752224      0.50%     59.16% # Class of executed instruction. (Count)
system.cpu2.exec_context.thread_0.statExecutedInstType::SimdCmp            0      0.00%     59.16% # Class of executed instruction. (Count)
system.cpu2.exec_context.thread_0.statExecutedInstType::SimdCvt          480      0.00%     59.16% # Class of executed instruction. (Count)
system.cpu2.exec_context.thread_0.statExecutedInstType::SimdMisc      5817041      0.33%     59.49% # Class of executed instruction. (Count)
system.cpu2.exec_context.thread_0.statExecutedInstType::SimdMult            0      0.00%     59.49% # Class of executed instruction. (Count)
system.cpu2.exec_context.thread_0.statExecutedInstType::SimdMultAcc            0      0.00%     59.49% # Class of executed instruction. (Count)
system.cpu2.exec_context.thread_0.statExecutedInstType::SimdShift           77      0.00%     59.49% # Class of executed instruction. (Count)
system.cpu2.exec_context.thread_0.statExecutedInstType::SimdShiftAcc            0      0.00%     59.49% # Class of executed instruction. (Count)
system.cpu2.exec_context.thread_0.statExecutedInstType::SimdDiv            0      0.00%     59.49% # Class of executed instruction. (Count)
system.cpu2.exec_context.thread_0.statExecutedInstType::SimdSqrt            0      0.00%     59.49% # Class of executed instruction. (Count)
system.cpu2.exec_context.thread_0.statExecutedInstType::SimdFloatAdd     33777894      1.93%     61.42% # Class of executed instruction. (Count)
system.cpu2.exec_context.thread_0.statExecutedInstType::SimdFloatAlu            0      0.00%     61.42% # Class of executed instruction. (Count)
system.cpu2.exec_context.thread_0.statExecutedInstType::SimdFloatCmp            0      0.00%     61.42% # Class of executed instruction. (Count)
system.cpu2.exec_context.thread_0.statExecutedInstType::SimdFloatCvt     29303603      1.67%     63.09% # Class of executed instruction. (Count)
system.cpu2.exec_context.thread_0.statExecutedInstType::SimdFloatDiv       883959      0.05%     63.14% # Class of executed instruction. (Count)
system.cpu2.exec_context.thread_0.statExecutedInstType::SimdFloatMisc            0      0.00%     63.14% # Class of executed instruction. (Count)
system.cpu2.exec_context.thread_0.statExecutedInstType::SimdFloatMult     10563166      0.60%     63.74% # Class of executed instruction. (Count)
system.cpu2.exec_context.thread_0.statExecutedInstType::SimdFloatMultAcc            0      0.00%     63.74% # Class of executed instruction. (Count)
system.cpu2.exec_context.thread_0.statExecutedInstType::SimdFloatSqrt       465842      0.03%     63.77% # Class of executed instruction. (Count)
system.cpu2.exec_context.thread_0.statExecutedInstType::SimdReduceAdd            0      0.00%     63.77% # Class of executed instruction. (Count)
system.cpu2.exec_context.thread_0.statExecutedInstType::SimdReduceAlu            0      0.00%     63.77% # Class of executed instruction. (Count)
system.cpu2.exec_context.thread_0.statExecutedInstType::SimdReduceCmp            0      0.00%     63.77% # Class of executed instruction. (Count)
system.cpu2.exec_context.thread_0.statExecutedInstType::SimdFloatReduceAdd            0      0.00%     63.77% # Class of executed instruction. (Count)
system.cpu2.exec_context.thread_0.statExecutedInstType::SimdFloatReduceCmp            0      0.00%     63.77% # Class of executed instruction. (Count)
system.cpu2.exec_context.thread_0.statExecutedInstType::SimdAes            0      0.00%     63.77% # Class of executed instruction. (Count)
system.cpu2.exec_context.thread_0.statExecutedInstType::SimdAesMix            0      0.00%     63.77% # Class of executed instruction. (Count)
system.cpu2.exec_context.thread_0.statExecutedInstType::SimdSha1Hash            0      0.00%     63.77% # Class of executed instruction. (Count)
system.cpu2.exec_context.thread_0.statExecutedInstType::SimdSha1Hash2            0      0.00%     63.77% # Class of executed instruction. (Count)
system.cpu2.exec_context.thread_0.statExecutedInstType::SimdSha256Hash            0      0.00%     63.77% # Class of executed instruction. (Count)
system.cpu2.exec_context.thread_0.statExecutedInstType::SimdSha256Hash2            0      0.00%     63.77% # Class of executed instruction. (Count)
system.cpu2.exec_context.thread_0.statExecutedInstType::SimdShaSigma2            0      0.00%     63.77% # Class of executed instruction. (Count)
system.cpu2.exec_context.thread_0.statExecutedInstType::SimdShaSigma3            0      0.00%     63.77% # Class of executed instruction. (Count)
system.cpu2.exec_context.thread_0.statExecutedInstType::SimdPredAlu            0      0.00%     63.77% # Class of executed instruction. (Count)
system.cpu2.exec_context.thread_0.statExecutedInstType::MemRead    423192660     24.13%     87.90% # Class of executed instruction. (Count)
system.cpu2.exec_context.thread_0.statExecutedInstType::MemWrite     91644068      5.23%     93.13% # Class of executed instruction. (Count)
system.cpu2.exec_context.thread_0.statExecutedInstType::FloatMemRead     88143142      5.03%     98.15% # Class of executed instruction. (Count)
system.cpu2.exec_context.thread_0.statExecutedInstType::FloatMemWrite     32391886      1.85%    100.00% # Class of executed instruction. (Count)
system.cpu2.exec_context.thread_0.statExecutedInstType::IprAccess            0      0.00%    100.00% # Class of executed instruction. (Count)
system.cpu2.exec_context.thread_0.statExecutedInstType::InstPrefetch            0      0.00%    100.00% # Class of executed instruction. (Count)
system.cpu2.exec_context.thread_0.statExecutedInstType::total   1753539815                       # Class of executed instruction. (Count)
system.cpu2.interrupts.clk_domain.clock          8000                       # Clock period in ticks (Tick)
system.cpu2.mmu.dtb.rdAccesses              513182718                       # TLB accesses on read requests (Count)
system.cpu2.mmu.dtb.wrAccesses              124052144                       # TLB accesses on write requests (Count)
system.cpu2.mmu.dtb.rdMisses                    92827                       # TLB misses on read requests (Count)
system.cpu2.mmu.dtb.wrMisses                    23557                       # TLB misses on write requests (Count)
system.cpu2.mmu.dtb.walker.power_state.pwrStateResidencyTicks::UNDEFINED 5807010553000                       # Cumulative time (in ticks) in various power states (Tick)
system.cpu2.mmu.itb.rdAccesses                      0                       # TLB accesses on read requests (Count)
system.cpu2.mmu.itb.wrAccesses             1726573067                       # TLB accesses on write requests (Count)
system.cpu2.mmu.itb.rdMisses                        0                       # TLB misses on read requests (Count)
system.cpu2.mmu.itb.wrMisses                      639                       # TLB misses on write requests (Count)
system.cpu2.mmu.itb.walker.power_state.pwrStateResidencyTicks::UNDEFINED 5807010553000                       # Cumulative time (in ticks) in various power states (Tick)
system.cpu2.power_state.numTransitions            194                       # Number of power state transitions (Count)
system.cpu2.power_state.ticksClkGated::samples           97                       # Distribution of time spent in the clock gated state (Tick)
system.cpu2.power_state.ticksClkGated::mean 985481907.216495                       # Distribution of time spent in the clock gated state (Tick)
system.cpu2.power_state.ticksClkGated::stdev 93533061.094822                       # Distribution of time spent in the clock gated state (Tick)
system.cpu2.power_state.ticksClkGated::1000-5e+10           97    100.00%    100.00% # Distribution of time spent in the clock gated state (Tick)
system.cpu2.power_state.ticksClkGated::min_value    114010000                       # Distribution of time spent in the clock gated state (Tick)
system.cpu2.power_state.ticksClkGated::max_value    998010000                       # Distribution of time spent in the clock gated state (Tick)
system.cpu2.power_state.ticksClkGated::total           97                       # Distribution of time spent in the clock gated state (Tick)
system.cpu2.power_state.pwrStateResidencyTicks::ON 1148410348000                       # Cumulative time (in ticks) in various power states (Tick)
system.cpu2.power_state.pwrStateResidencyTicks::CLK_GATED  95591745000                       # Cumulative time (in ticks) in various power states (Tick)
system.cpu2.thread_0.numInsts                       0                       # Number of Instructions committed (Count)
system.cpu2.thread_0.numOps                         0                       # Number of Ops committed (Count)
system.cpu2.thread_0.numMemRefs                     0                       # Number of Memory References (Count)
system.cpu3.numCycles                      2438448677                       # Number of cpu cycles simulated (Cycle)
system.cpu3.numWorkItemsStarted                     0                       # Number of work items this cpu started (Count)
system.cpu3.numWorkItemsCompleted                   0                       # Number of work items this cpu completed (Count)
system.cpu3.exec_context.thread_0.numInsts    889639043                       # Number of instructions committed (Count)
system.cpu3.exec_context.thread_0.numOps   1347904225                       # Number of ops (including micro ops) committed (Count)
system.cpu3.exec_context.thread_0.numIntAluAccesses   1149449905                       # Number of integer alu accesses (Count)
system.cpu3.exec_context.thread_0.numFpAluAccesses    334605537                       # Number of float alu accesses (Count)
system.cpu3.exec_context.thread_0.numVecAluAccesses            0                       # Number of vector alu accesses (Count)
system.cpu3.exec_context.thread_0.numCallsReturns      5786885                       # Number of times a function call or return occured (Count)
system.cpu3.exec_context.thread_0.numCondCtrlInsts     52918429                       # Number of instructions that are conditional controls (Count)
system.cpu3.exec_context.thread_0.numIntInsts   1149449905                       # Number of integer instructions (Count)
system.cpu3.exec_context.thread_0.numFpInsts    334605537                       # Number of float instructions (Count)
system.cpu3.exec_context.thread_0.numVecInsts            0                       # Number of vector instructions (Count)
system.cpu3.exec_context.thread_0.numIntRegReads   1540358954                       # Number of times the integer registers were read (Count)
system.cpu3.exec_context.thread_0.numIntRegWrites    838711127                       # Number of times the integer registers were written (Count)
system.cpu3.exec_context.thread_0.numFpRegReads    313646417                       # Number of times the floating registers were read (Count)
system.cpu3.exec_context.thread_0.numFpRegWrites    280323813                       # Number of times the floating registers were written (Count)
system.cpu3.exec_context.thread_0.numVecRegReads            0                       # Number of times the vector registers were read (Count)
system.cpu3.exec_context.thread_0.numVecRegWrites            0                       # Number of times the vector registers were written (Count)
system.cpu3.exec_context.thread_0.numVecPredRegReads            0                       # Number of times the predicate registers were read (Count)
system.cpu3.exec_context.thread_0.numVecPredRegWrites            0                       # Number of times the predicate registers were written (Count)
system.cpu3.exec_context.thread_0.numCCRegReads    338037842                       # Number of times the CC registers were read (Count)
system.cpu3.exec_context.thread_0.numCCRegWrites    448414262                       # Number of times the CC registers were written (Count)
system.cpu3.exec_context.thread_0.numMiscRegReads    623168913                       # Number of times the Misc registers were read (Count)
system.cpu3.exec_context.thread_0.numMiscRegWrites        55375                       # Number of times the Misc registers were written (Count)
system.cpu3.exec_context.thread_0.numMemRefs    494020695                       # Number of memory refs (Count)
system.cpu3.exec_context.thread_0.numLoadInsts    377080812                       # Number of load instructions (Count)
system.cpu3.exec_context.thread_0.numStoreInsts    116939883                       # Number of store instructions (Count)
system.cpu3.exec_context.thread_0.numIdleCycles 718639947.171194                       # Number of idle cycles (Cycle)
system.cpu3.exec_context.thread_0.numBusyCycles 1719808729.828806                       # Number of busy cycles (Cycle)
system.cpu3.exec_context.thread_0.notIdleFraction     0.705288                       # Percentage of non-idle cycles (Ratio)
system.cpu3.exec_context.thread_0.idleFraction     0.294712                       # Percentage of idle cycles (Ratio)
system.cpu3.exec_context.thread_0.numBranches     63300663                       # Number of branches fetched (Count)
system.cpu3.exec_context.thread_0.statExecutedInstType::No_OpClass        13275      0.00%      0.00% # Class of executed instruction. (Count)
system.cpu3.exec_context.thread_0.statExecutedInstType::IntAlu    647785734     48.06%     48.06% # Class of executed instruction. (Count)
system.cpu3.exec_context.thread_0.statExecutedInstType::IntMult      2915523      0.22%     48.28% # Class of executed instruction. (Count)
system.cpu3.exec_context.thread_0.statExecutedInstType::IntDiv      1957295      0.15%     48.42% # Class of executed instruction. (Count)
system.cpu3.exec_context.thread_0.statExecutedInstType::FloatAdd     92637729      6.87%     55.29% # Class of executed instruction. (Count)
system.cpu3.exec_context.thread_0.statExecutedInstType::FloatCmp            0      0.00%     55.29% # Class of executed instruction. (Count)
system.cpu3.exec_context.thread_0.statExecutedInstType::FloatCvt          528      0.00%     55.29% # Class of executed instruction. (Count)
system.cpu3.exec_context.thread_0.statExecutedInstType::FloatMult            0      0.00%     55.29% # Class of executed instruction. (Count)
system.cpu3.exec_context.thread_0.statExecutedInstType::FloatMultAcc            0      0.00%     55.29% # Class of executed instruction. (Count)
system.cpu3.exec_context.thread_0.statExecutedInstType::FloatDiv            0      0.00%     55.29% # Class of executed instruction. (Count)
system.cpu3.exec_context.thread_0.statExecutedInstType::FloatMisc            0      0.00%     55.29% # Class of executed instruction. (Count)
system.cpu3.exec_context.thread_0.statExecutedInstType::FloatSqrt            0      0.00%     55.29% # Class of executed instruction. (Count)
system.cpu3.exec_context.thread_0.statExecutedInstType::SimdAdd          490      0.00%     55.29% # Class of executed instruction. (Count)
system.cpu3.exec_context.thread_0.statExecutedInstType::SimdAddAcc            0      0.00%     55.29% # Class of executed instruction. (Count)
system.cpu3.exec_context.thread_0.statExecutedInstType::SimdAlu     12539300      0.93%     56.22% # Class of executed instruction. (Count)
system.cpu3.exec_context.thread_0.statExecutedInstType::SimdCmp            0      0.00%     56.22% # Class of executed instruction. (Count)
system.cpu3.exec_context.thread_0.statExecutedInstType::SimdCvt          620      0.00%     56.22% # Class of executed instruction. (Count)
system.cpu3.exec_context.thread_0.statExecutedInstType::SimdMisc     12764669      0.95%     57.17% # Class of executed instruction. (Count)
system.cpu3.exec_context.thread_0.statExecutedInstType::SimdMult            0      0.00%     57.17% # Class of executed instruction. (Count)
system.cpu3.exec_context.thread_0.statExecutedInstType::SimdMultAcc            0      0.00%     57.17% # Class of executed instruction. (Count)
system.cpu3.exec_context.thread_0.statExecutedInstType::SimdShift          235      0.00%     57.17% # Class of executed instruction. (Count)
system.cpu3.exec_context.thread_0.statExecutedInstType::SimdShiftAcc            0      0.00%     57.17% # Class of executed instruction. (Count)
system.cpu3.exec_context.thread_0.statExecutedInstType::SimdDiv            0      0.00%     57.17% # Class of executed instruction. (Count)
system.cpu3.exec_context.thread_0.statExecutedInstType::SimdSqrt            0      0.00%     57.17% # Class of executed instruction. (Count)
system.cpu3.exec_context.thread_0.statExecutedInstType::SimdFloatAdd     33921839      2.52%     59.69% # Class of executed instruction. (Count)
system.cpu3.exec_context.thread_0.statExecutedInstType::SimdFloatAlu            0      0.00%     59.69% # Class of executed instruction. (Count)
system.cpu3.exec_context.thread_0.statExecutedInstType::SimdFloatCmp            0      0.00%     59.69% # Class of executed instruction. (Count)
system.cpu3.exec_context.thread_0.statExecutedInstType::SimdFloatCvt     32292661      2.40%     62.08% # Class of executed instruction. (Count)
system.cpu3.exec_context.thread_0.statExecutedInstType::SimdFloatDiv       657565      0.05%     62.13% # Class of executed instruction. (Count)
system.cpu3.exec_context.thread_0.statExecutedInstType::SimdFloatMisc            0      0.00%     62.13% # Class of executed instruction. (Count)
system.cpu3.exec_context.thread_0.statExecutedInstType::SimdFloatMult     16171835      1.20%     63.33% # Class of executed instruction. (Count)
system.cpu3.exec_context.thread_0.statExecutedInstType::SimdFloatMultAcc            0      0.00%     63.33% # Class of executed instruction. (Count)
system.cpu3.exec_context.thread_0.statExecutedInstType::SimdFloatSqrt       224631      0.02%     63.35% # Class of executed instruction. (Count)
system.cpu3.exec_context.thread_0.statExecutedInstType::SimdReduceAdd            0      0.00%     63.35% # Class of executed instruction. (Count)
system.cpu3.exec_context.thread_0.statExecutedInstType::SimdReduceAlu            0      0.00%     63.35% # Class of executed instruction. (Count)
system.cpu3.exec_context.thread_0.statExecutedInstType::SimdReduceCmp            0      0.00%     63.35% # Class of executed instruction. (Count)
system.cpu3.exec_context.thread_0.statExecutedInstType::SimdFloatReduceAdd            0      0.00%     63.35% # Class of executed instruction. (Count)
system.cpu3.exec_context.thread_0.statExecutedInstType::SimdFloatReduceCmp            0      0.00%     63.35% # Class of executed instruction. (Count)
system.cpu3.exec_context.thread_0.statExecutedInstType::SimdAes            0      0.00%     63.35% # Class of executed instruction. (Count)
system.cpu3.exec_context.thread_0.statExecutedInstType::SimdAesMix            0      0.00%     63.35% # Class of executed instruction. (Count)
system.cpu3.exec_context.thread_0.statExecutedInstType::SimdSha1Hash            0      0.00%     63.35% # Class of executed instruction. (Count)
system.cpu3.exec_context.thread_0.statExecutedInstType::SimdSha1Hash2            0      0.00%     63.35% # Class of executed instruction. (Count)
system.cpu3.exec_context.thread_0.statExecutedInstType::SimdSha256Hash            0      0.00%     63.35% # Class of executed instruction. (Count)
system.cpu3.exec_context.thread_0.statExecutedInstType::SimdSha256Hash2            0      0.00%     63.35% # Class of executed instruction. (Count)
system.cpu3.exec_context.thread_0.statExecutedInstType::SimdShaSigma2            0      0.00%     63.35% # Class of executed instruction. (Count)
system.cpu3.exec_context.thread_0.statExecutedInstType::SimdShaSigma3            0      0.00%     63.35% # Class of executed instruction. (Count)
system.cpu3.exec_context.thread_0.statExecutedInstType::SimdPredAlu            0      0.00%     63.35% # Class of executed instruction. (Count)
system.cpu3.exec_context.thread_0.statExecutedInstType::MemRead    292858407     21.73%     85.08% # Class of executed instruction. (Count)
system.cpu3.exec_context.thread_0.statExecutedInstType::MemWrite     77094218      5.72%     90.80% # Class of executed instruction. (Count)
system.cpu3.exec_context.thread_0.statExecutedInstType::FloatMemRead     84222405      6.25%     97.04% # Class of executed instruction. (Count)
system.cpu3.exec_context.thread_0.statExecutedInstType::FloatMemWrite     39845665      2.96%    100.00% # Class of executed instruction. (Count)
system.cpu3.exec_context.thread_0.statExecutedInstType::IprAccess            0      0.00%    100.00% # Class of executed instruction. (Count)
system.cpu3.exec_context.thread_0.statExecutedInstType::InstPrefetch            0      0.00%    100.00% # Class of executed instruction. (Count)
system.cpu3.exec_context.thread_0.statExecutedInstType::total   1347904624                       # Class of executed instruction. (Count)
system.cpu3.interrupts.clk_domain.clock          8000                       # Clock period in ticks (Tick)
system.cpu3.mmu.dtb.rdAccesses              378437051                       # TLB accesses on read requests (Count)
system.cpu3.mmu.dtb.wrAccesses              116940076                       # TLB accesses on write requests (Count)
system.cpu3.mmu.dtb.rdMisses                    24043                       # TLB misses on read requests (Count)
system.cpu3.mmu.dtb.wrMisses                    16219                       # TLB misses on write requests (Count)
system.cpu3.mmu.dtb.walker.power_state.pwrStateResidencyTicks::UNDEFINED 5807010553000                       # Cumulative time (in ticks) in various power states (Tick)
system.cpu3.mmu.itb.rdAccesses                      0                       # TLB accesses on read requests (Count)
system.cpu3.mmu.itb.wrAccesses             1260656744                       # TLB accesses on write requests (Count)
system.cpu3.mmu.itb.rdMisses                        0                       # TLB misses on read requests (Count)
system.cpu3.mmu.itb.wrMisses                     1131                       # TLB misses on write requests (Count)
system.cpu3.mmu.itb.walker.power_state.pwrStateResidencyTicks::UNDEFINED 5807010553000                       # Cumulative time (in ticks) in various power states (Tick)
system.cpu3.power_state.numTransitions            734                       # Number of power state transitions (Count)
system.cpu3.power_state.ticksClkGated::samples          368                       # Distribution of time spent in the clock gated state (Tick)
system.cpu3.power_state.ticksClkGated::mean 978454100.543478                       # Distribution of time spent in the clock gated state (Tick)
system.cpu3.power_state.ticksClkGated::stdev 130133593.780667                       # Distribution of time spent in the clock gated state (Tick)
system.cpu3.power_state.ticksClkGated::1000-5e+10          368    100.00%    100.00% # Distribution of time spent in the clock gated state (Tick)
system.cpu3.power_state.ticksClkGated::min_value      4594000                       # Distribution of time spent in the clock gated state (Tick)
system.cpu3.power_state.ticksClkGated::max_value    997974000                       # Distribution of time spent in the clock gated state (Tick)
system.cpu3.power_state.ticksClkGated::total          368                       # Distribution of time spent in the clock gated state (Tick)
system.cpu3.power_state.pwrStateResidencyTicks::ON 859438948500                       # Cumulative time (in ticks) in various power states (Tick)
system.cpu3.power_state.pwrStateResidencyTicks::CLK_GATED 360071109000                       # Cumulative time (in ticks) in various power states (Tick)
system.cpu3.thread_0.numInsts                       0                       # Number of Instructions committed (Count)
system.cpu3.thread_0.numOps                         0                       # Number of Ops committed (Count)
system.cpu3.thread_0.numMemRefs                     0                       # Number of Memory References (Count)
system.cpu_clk_domain.clock                       500                       # Clock period in ticks (Tick)
system.cpu_voltage_domain.voltage                   1                       # Voltage in Volts (Volt)
system.iobridge.power_state.pwrStateResidencyTicks::UNDEFINED 5807010553000                       # Cumulative time (in ticks) in various power states (Tick)
system.iobus.transDist::ReadReq                   705                       # Transaction distribution (Count)
system.iobus.transDist::ReadResp                  705                       # Transaction distribution (Count)
system.iobus.transDist::WriteReq                 5503                       # Transaction distribution (Count)
system.iobus.transDist::WriteResp                5503                       # Transaction distribution (Count)
system.iobus.pktCount_system.bridge.mem_side_port::system.pc.south_bridge.ide.pio          230                       # Packet count per connected requestor and responder (Count)
system.iobus.pktCount_system.bridge.mem_side_port::system.pc.com_1.pio         1656                       # Packet count per connected requestor and responder (Count)
system.iobus.pktCount_system.bridge.mem_side_port::total         1886                       # Packet count per connected requestor and responder (Count)
system.iobus.pktCount_system.pc.south_bridge.ide.dma::system.iobridge.cpu_side_port        10106                       # Packet count per connected requestor and responder (Count)
system.iobus.pktCount_system.pc.south_bridge.ide.dma::total        10106                       # Packet count per connected requestor and responder (Count)
system.iobus.pktCount_system.pc.south_bridge.io_apic.int_request::system.apicbridge.cpu_side_port          424                       # Packet count per connected requestor and responder (Count)
system.iobus.pktCount_system.pc.south_bridge.io_apic.int_request::total          424                       # Packet count per connected requestor and responder (Count)
system.iobus.pktCount::total                    12416                       # Packet count per connected requestor and responder (Count)
system.iobus.pktSize_system.bridge.mem_side_port::system.pc.south_bridge.ide.pio          130                       # Cumulative packet size per connected requestor and responder (Byte)
system.iobus.pktSize_system.bridge.mem_side_port::system.pc.com_1.pio          828                       # Cumulative packet size per connected requestor and responder (Byte)
system.iobus.pktSize_system.bridge.mem_side_port::total          958                       # Cumulative packet size per connected requestor and responder (Byte)
system.iobus.pktSize_system.pc.south_bridge.ide.dma::system.iobridge.cpu_side_port       319976                       # Cumulative packet size per connected requestor and responder (Byte)
system.iobus.pktSize_system.pc.south_bridge.ide.dma::total       319976                       # Cumulative packet size per connected requestor and responder (Byte)
system.iobus.pktSize_system.pc.south_bridge.io_apic.int_request::system.apicbridge.cpu_side_port          848                       # Cumulative packet size per connected requestor and responder (Byte)
system.iobus.pktSize_system.pc.south_bridge.io_apic.int_request::total          848                       # Cumulative packet size per connected requestor and responder (Byte)
system.iobus.pktSize::total                    321782                       # Cumulative packet size per connected requestor and responder (Byte)
system.iobus.power_state.pwrStateResidencyTicks::UNDEFINED 5807010553000                       # Cumulative time (in ticks) in various power states (Tick)
system.mem_ctrls.priorityMinLatency      0.000000000000                       # per QoS priority minimum request to response latency (Second)
system.mem_ctrls.priorityMaxLatency      0.000000000000                       # per QoS priority maximum request to response latency (Second)
system.mem_ctrls.numReadWriteTurnArounds            0                       # Number of turnarounds from READ to WRITE (Count)
system.mem_ctrls.numWriteReadTurnArounds            0                       # Number of turnarounds from WRITE to READ (Count)
system.mem_ctrls.numStayReadState                   0                       # Number of times bus staying in READ state (Count)
system.mem_ctrls.numStayWriteState                  0                       # Number of times bus staying in WRITE state (Count)
system.mem_ctrls.readReqs                           0                       # Number of read requests accepted (Count)
system.mem_ctrls.writeReqs                          0                       # Number of write requests accepted (Count)
system.mem_ctrls.readBursts                         0                       # Number of controller read bursts, including those serviced by the write queue (Count)
system.mem_ctrls.writeBursts                        0                       # Number of controller write bursts, including those merged in the write queue (Count)
system.mem_ctrls.servicedByWrQ                      0                       # Number of controller read bursts serviced by the write queue (Count)
system.mem_ctrls.mergedWrBursts                     0                       # Number of controller write bursts merged with an existing one (Count)
system.mem_ctrls.neitherReadNorWriteReqs            0                       # Number of requests that are neither read nor write (Count)
system.mem_ctrls.avgRdQLen                       0.00                       # Average read queue length when enqueuing ((Count/Tick))
system.mem_ctrls.avgWrQLen                       0.00                       # Average write queue length when enqueuing ((Count/Tick))
system.mem_ctrls.numRdRetry                         0                       # Number of times read queue was full causing retry (Count)
system.mem_ctrls.numWrRetry                         0                       # Number of times write queue was full causing retry (Count)
system.mem_ctrls.readPktSize::0                     0                       # Read request sizes (log2) (Count)
system.mem_ctrls.readPktSize::1                     0                       # Read request sizes (log2) (Count)
system.mem_ctrls.readPktSize::2                     0                       # Read request sizes (log2) (Count)
system.mem_ctrls.readPktSize::3                     0                       # Read request sizes (log2) (Count)
system.mem_ctrls.readPktSize::4                     0                       # Read request sizes (log2) (Count)
system.mem_ctrls.readPktSize::5                     0                       # Read request sizes (log2) (Count)
system.mem_ctrls.readPktSize::6                     0                       # Read request sizes (log2) (Count)
system.mem_ctrls.writePktSize::0                    0                       # Write request sizes (log2) (Count)
system.mem_ctrls.writePktSize::1                    0                       # Write request sizes (log2) (Count)
system.mem_ctrls.writePktSize::2                    0                       # Write request sizes (log2) (Count)
system.mem_ctrls.writePktSize::3                    0                       # Write request sizes (log2) (Count)
system.mem_ctrls.writePktSize::4                    0                       # Write request sizes (log2) (Count)
system.mem_ctrls.writePktSize::5                    0                       # Write request sizes (log2) (Count)
system.mem_ctrls.writePktSize::6                    0                       # Write request sizes (log2) (Count)
system.mem_ctrls.rdQLenPdf::0                       0                       # What read queue length does an incoming req see (Count)
system.mem_ctrls.rdQLenPdf::1                       0                       # What read queue length does an incoming req see (Count)
system.mem_ctrls.rdQLenPdf::2                       0                       # What read queue length does an incoming req see (Count)
system.mem_ctrls.rdQLenPdf::3                       0                       # What read queue length does an incoming req see (Count)
system.mem_ctrls.rdQLenPdf::4                       0                       # What read queue length does an incoming req see (Count)
system.mem_ctrls.rdQLenPdf::5                       0                       # What read queue length does an incoming req see (Count)
system.mem_ctrls.rdQLenPdf::6                       0                       # What read queue length does an incoming req see (Count)
system.mem_ctrls.rdQLenPdf::7                       0                       # What read queue length does an incoming req see (Count)
system.mem_ctrls.rdQLenPdf::8                       0                       # What read queue length does an incoming req see (Count)
system.mem_ctrls.rdQLenPdf::9                       0                       # What read queue length does an incoming req see (Count)
system.mem_ctrls.rdQLenPdf::10                      0                       # What read queue length does an incoming req see (Count)
system.mem_ctrls.rdQLenPdf::11                      0                       # What read queue length does an incoming req see (Count)
system.mem_ctrls.rdQLenPdf::12                      0                       # What read queue length does an incoming req see (Count)
system.mem_ctrls.rdQLenPdf::13                      0                       # What read queue length does an incoming req see (Count)
system.mem_ctrls.rdQLenPdf::14                      0                       # What read queue length does an incoming req see (Count)
system.mem_ctrls.rdQLenPdf::15                      0                       # What read queue length does an incoming req see (Count)
system.mem_ctrls.rdQLenPdf::16                      0                       # What read queue length does an incoming req see (Count)
system.mem_ctrls.rdQLenPdf::17                      0                       # What read queue length does an incoming req see (Count)
system.mem_ctrls.rdQLenPdf::18                      0                       # What read queue length does an incoming req see (Count)
system.mem_ctrls.rdQLenPdf::19                      0                       # What read queue length does an incoming req see (Count)
system.mem_ctrls.rdQLenPdf::20                      0                       # What read queue length does an incoming req see (Count)
system.mem_ctrls.rdQLenPdf::21                      0                       # What read queue length does an incoming req see (Count)
system.mem_ctrls.rdQLenPdf::22                      0                       # What read queue length does an incoming req see (Count)
system.mem_ctrls.rdQLenPdf::23                      0                       # What read queue length does an incoming req see (Count)
system.mem_ctrls.rdQLenPdf::24                      0                       # What read queue length does an incoming req see (Count)
system.mem_ctrls.rdQLenPdf::25                      0                       # What read queue length does an incoming req see (Count)
system.mem_ctrls.rdQLenPdf::26                      0                       # What read queue length does an incoming req see (Count)
system.mem_ctrls.rdQLenPdf::27                      0                       # What read queue length does an incoming req see (Count)
system.mem_ctrls.rdQLenPdf::28                      0                       # What read queue length does an incoming req see (Count)
system.mem_ctrls.rdQLenPdf::29                      0                       # What read queue length does an incoming req see (Count)
system.mem_ctrls.rdQLenPdf::30                      0                       # What read queue length does an incoming req see (Count)
system.mem_ctrls.rdQLenPdf::31                      0                       # What read queue length does an incoming req see (Count)
system.mem_ctrls.wrQLenPdf::0                       0                       # What write queue length does an incoming req see (Count)
system.mem_ctrls.wrQLenPdf::1                       0                       # What write queue length does an incoming req see (Count)
system.mem_ctrls.wrQLenPdf::2                       0                       # What write queue length does an incoming req see (Count)
system.mem_ctrls.wrQLenPdf::3                       0                       # What write queue length does an incoming req see (Count)
system.mem_ctrls.wrQLenPdf::4                       0                       # What write queue length does an incoming req see (Count)
system.mem_ctrls.wrQLenPdf::5                       0                       # What write queue length does an incoming req see (Count)
system.mem_ctrls.wrQLenPdf::6                       0                       # What write queue length does an incoming req see (Count)
system.mem_ctrls.wrQLenPdf::7                       0                       # What write queue length does an incoming req see (Count)
system.mem_ctrls.wrQLenPdf::8                       0                       # What write queue length does an incoming req see (Count)
system.mem_ctrls.wrQLenPdf::9                       0                       # What write queue length does an incoming req see (Count)
system.mem_ctrls.wrQLenPdf::10                      0                       # What write queue length does an incoming req see (Count)
system.mem_ctrls.wrQLenPdf::11                      0                       # What write queue length does an incoming req see (Count)
system.mem_ctrls.wrQLenPdf::12                      0                       # What write queue length does an incoming req see (Count)
system.mem_ctrls.wrQLenPdf::13                      0                       # What write queue length does an incoming req see (Count)
system.mem_ctrls.wrQLenPdf::14                      0                       # What write queue length does an incoming req see (Count)
system.mem_ctrls.wrQLenPdf::15                      0                       # What write queue length does an incoming req see (Count)
system.mem_ctrls.wrQLenPdf::16                      0                       # What write queue length does an incoming req see (Count)
system.mem_ctrls.wrQLenPdf::17                      0                       # What write queue length does an incoming req see (Count)
system.mem_ctrls.wrQLenPdf::18                      0                       # What write queue length does an incoming req see (Count)
system.mem_ctrls.wrQLenPdf::19                      0                       # What write queue length does an incoming req see (Count)
system.mem_ctrls.wrQLenPdf::20                      0                       # What write queue length does an incoming req see (Count)
system.mem_ctrls.wrQLenPdf::21                      0                       # What write queue length does an incoming req see (Count)
system.mem_ctrls.wrQLenPdf::22                      0                       # What write queue length does an incoming req see (Count)
system.mem_ctrls.wrQLenPdf::23                      0                       # What write queue length does an incoming req see (Count)
system.mem_ctrls.wrQLenPdf::24                      0                       # What write queue length does an incoming req see (Count)
system.mem_ctrls.wrQLenPdf::25                      0                       # What write queue length does an incoming req see (Count)
system.mem_ctrls.wrQLenPdf::26                      0                       # What write queue length does an incoming req see (Count)
system.mem_ctrls.wrQLenPdf::27                      0                       # What write queue length does an incoming req see (Count)
system.mem_ctrls.wrQLenPdf::28                      0                       # What write queue length does an incoming req see (Count)
system.mem_ctrls.wrQLenPdf::29                      0                       # What write queue length does an incoming req see (Count)
system.mem_ctrls.wrQLenPdf::30                      0                       # What write queue length does an incoming req see (Count)
system.mem_ctrls.wrQLenPdf::31                      0                       # What write queue length does an incoming req see (Count)
system.mem_ctrls.wrQLenPdf::32                      0                       # What write queue length does an incoming req see (Count)
system.mem_ctrls.wrQLenPdf::33                      0                       # What write queue length does an incoming req see (Count)
system.mem_ctrls.wrQLenPdf::34                      0                       # What write queue length does an incoming req see (Count)
system.mem_ctrls.wrQLenPdf::35                      0                       # What write queue length does an incoming req see (Count)
system.mem_ctrls.wrQLenPdf::36                      0                       # What write queue length does an incoming req see (Count)
system.mem_ctrls.wrQLenPdf::37                      0                       # What write queue length does an incoming req see (Count)
system.mem_ctrls.wrQLenPdf::38                      0                       # What write queue length does an incoming req see (Count)
[...]
system.membus.pktCount_system.cpu3.dcache_port::system.mem_ctrls.port    994180152                       # Packet count per connected requestor and responder (Count)
system.membus.pktCount_system.cpu3.dcache_port::total    994183488                       # Packet count per connected requestor and responder (Count)
system.membus.pktCount_system.cpu3.mmu.itb.walker.port::system.mem_ctrls.port        14200                       # Packet count per connected requestor and responder (Count)
system.membus.pktCount_system.cpu3.mmu.itb.walker.port::total        14200                       # Packet count per connected requestor and responder (Count)
system.membus.pktCount_system.cpu3.mmu.dtb.walker.port::system.mem_ctrls.port       329560                       # Packet count per connected requestor and responder (Count)
system.membus.pktCount_system.cpu3.mmu.dtb.walker.port::total       329560                       # Packet count per connected requestor and responder (Count)
system.membus.pktCount_system.cpu3.interrupts.int_requestor::system.cpu0.interrupts.int_responder          112                       # Packet count per connected requestor and responder (Count)
system.membus.pktCount_system.cpu3.interrupts.int_requestor::system.cpu1.interrupts.int_responder           20                       # Packet count per connected requestor and responder (Count)
system.membus.pktCount_system.cpu3.interrupts.int_requestor::system.cpu2.interrupts.int_responder           30                       # Packet count per connected requestor and responder (Count)
system.membus.pktCount_system.cpu3.interrupts.int_requestor::total          162                       # Packet count per connected requestor and responder (Count)
system.membus.pktCount::total             16683269074                       # Packet count per connected requestor and responder (Count)
system.membus.pktSize_system.apicbridge.mem_side_port::system.cpu1.interrupts.int_responder         2316                       # Cumulative packet size per connected requestor and responder (Byte)
system.membus.pktSize_system.apicbridge.mem_side_port::total         2316                       # Cumulative packet size per connected requestor and responder (Byte)
system.membus.pktSize_system.iobridge.mem_side_port::system.mem_ctrls.port       328184                       # Cumulative packet size per connected requestor and responder (Byte)
system.membus.pktSize_system.iobridge.mem_side_port::total       328184                       # Cumulative packet size per connected requestor and responder (Byte)
system.membus.pktSize_system.cpu0.icache_port::system.mem_ctrls.port  13744770184                       # Cumulative packet size per connected requestor and responder (Byte)
system.membus.pktSize_system.cpu0.icache_port::total  13744770184                       # Cumulative packet size per connected requestor and responder (Byte)
system.membus.pktSize_system.cpu0.dcache_port::system.bridge.cpu_side_port           23                       # Cumulative packet size per connected requestor and responder (Byte)
system.membus.pktSize_system.cpu0.dcache_port::system.cpu0.interrupts.pio         6364                       # Cumulative packet size per connected requestor and responder (Byte)
system.membus.pktSize_system.cpu0.dcache_port::system.mem_ctrls.port   3991272664                       # Cumulative packet size per connected requestor and responder (Byte)
system.membus.pktSize_system.cpu0.dcache_port::total   3991279051                       # Cumulative packet size per connected requestor and responder (Byte)
system.membus.pktSize_system.cpu0.mmu.itb.walker.port::system.mem_ctrls.port        47328                       # Cumulative packet size per connected requestor and responder (Byte)
system.membus.pktSize_system.cpu0.mmu.itb.walker.port::total        47328                       # Cumulative packet size per connected requestor and responder (Byte)
system.membus.pktSize_system.cpu0.mmu.dtb.walker.port::system.mem_ctrls.port      2808032                       # Cumulative packet size per connected requestor and responder (Byte)
system.membus.pktSize_system.cpu0.mmu.dtb.walker.port::total      2808032                       # Cumulative packet size per connected requestor and responder (Byte)
system.membus.pktSize_system.cpu0.interrupts.int_requestor::system.cpu1.interrupts.int_responder          152                       # Cumulative packet size per connected requestor and responder (Byte)
system.membus.pktSize_system.cpu0.interrupts.int_requestor::system.cpu2.interrupts.int_responder           32                       # Cumulative packet size per connected requestor and responder (Byte)
system.membus.pktSize_system.cpu0.interrupts.int_requestor::system.cpu3.interrupts.int_responder           84                       # Cumulative packet size per connected requestor and responder (Byte)
system.membus.pktSize_system.cpu0.interrupts.int_requestor::total          268                       # Cumulative packet size per connected requestor and responder (Byte)
system.membus.pktSize_system.cpu1.icache_port::system.mem_ctrls.port  10485618392                       # Cumulative packet size per connected requestor and responder (Byte)
system.membus.pktSize_system.cpu1.icache_port::total  10485618392                       # Cumulative packet size per connected requestor and responder (Byte)
system.membus.pktSize_system.cpu1.dcache_port::system.bridge.cpu_side_port         2305                       # Cumulative packet size per connected requestor and responder (Byte)
system.membus.pktSize_system.cpu1.dcache_port::system.cpu1.interrupts.pio         6908                       # Cumulative packet size per connected requestor and responder (Byte)
system.membus.pktSize_system.cpu1.dcache_port::system.mem_ctrls.port   2953864644                       # Cumulative packet size per connected requestor and responder (Byte)
system.membus.pktSize_system.cpu1.dcache_port::total   2953873857                       # Cumulative packet size per connected requestor and responder (Byte)
system.membus.pktSize_system.cpu1.mmu.itb.walker.port::system.mem_ctrls.port        44632                       # Cumulative packet size per connected requestor and responder (Byte)
system.membus.pktSize_system.cpu1.mmu.itb.walker.port::total        44632                       # Cumulative packet size per connected requestor and responder (Byte)
system.membus.pktSize_system.cpu1.mmu.dtb.walker.port::system.mem_ctrls.port      3524448                       # Cumulative packet size per connected requestor and responder (Byte)
system.membus.pktSize_system.cpu1.mmu.dtb.walker.port::total      3524448                       # Cumulative packet size per connected requestor and responder (Byte)
system.membus.pktSize_system.cpu1.interrupts.int_requestor::system.cpu0.interrupts.int_responder          316                       # Cumulative packet size per connected requestor and responder (Byte)
system.membus.pktSize_system.cpu1.interrupts.int_requestor::system.cpu2.interrupts.int_responder           96                       # Cumulative packet size per connected requestor and responder (Byte)
system.membus.pktSize_system.cpu1.interrupts.int_requestor::system.cpu3.interrupts.int_responder          208                       # Cumulative packet size per connected requestor and responder (Byte)
system.membus.pktSize_system.cpu1.interrupts.int_requestor::total          620                       # Cumulative packet size per connected requestor and responder (Byte)
system.membus.pktSize_system.cpu2.icache_port::system.mem_ctrls.port  13889422336                       # Cumulative packet size per connected requestor and responder (Byte)
system.membus.pktSize_system.cpu2.icache_port::total  13889422336                       # Cumulative packet size per connected requestor and responder (Byte)
system.membus.pktSize_system.cpu2.dcache_port::system.bridge.cpu_side_port           45                       # Cumulative packet size per connected requestor and responder (Byte)
system.membus.pktSize_system.cpu2.dcache_port::system.cpu2.interrupts.pio         6444                       # Cumulative packet size per connected requestor and responder (Byte)
system.membus.pktSize_system.cpu2.dcache_port::system.mem_ctrls.port   3804658680                       # Cumulative packet size per connected requestor and responder (Byte)
system.membus.pktSize_system.cpu2.dcache_port::total   3804665169                       # Cumulative packet size per connected requestor and responder (Byte)
system.membus.pktSize_system.cpu2.mmu.itb.walker.port::system.mem_ctrls.port        59944                       # Cumulative packet size per connected requestor and responder (Byte)
system.membus.pktSize_system.cpu2.mmu.itb.walker.port::total        59944                       # Cumulative packet size per connected requestor and responder (Byte)
system.membus.pktSize_system.cpu2.mmu.dtb.walker.port::system.mem_ctrls.port      3843024                       # Cumulative packet size per connected requestor and responder (Byte)
system.membus.pktSize_system.cpu2.mmu.dtb.walker.port::total      3843024                       # Cumulative packet size per connected requestor and responder (Byte)
system.membus.pktSize_system.cpu2.interrupts.int_requestor::system.cpu0.interrupts.int_responder          336                       # Cumulative packet size per connected requestor and responder (Byte)
system.membus.pktSize_system.cpu2.interrupts.int_requestor::system.cpu1.interrupts.int_responder          248                       # Cumulative packet size per connected requestor and responder (Byte)
system.membus.pktSize_system.cpu2.interrupts.int_requestor::system.cpu3.interrupts.int_responder          208                       # Cumulative packet size per connected requestor and responder (Byte)
system.membus.pktSize_system.cpu2.interrupts.int_requestor::total          792                       # Cumulative packet size per connected requestor and responder (Byte)
system.membus.pktSize_system.cpu3.icache_port::system.mem_ctrls.port  10123291272                       # Cumulative packet size per connected requestor and responder (Byte)
system.membus.pktSize_system.cpu3.icache_port::total  10123291272                       # Cumulative packet size per connected requestor and responder (Byte)
system.membus.pktSize_system.cpu3.dcache_port::system.bridge.cpu_side_port          100                       # Cumulative packet size per connected requestor and responder (Byte)
system.membus.pktSize_system.cpu3.dcache_port::system.cpu3.interrupts.pio         6332                       # Cumulative packet size per connected requestor and responder (Byte)
system.membus.pktSize_system.cpu3.dcache_port::system.mem_ctrls.port   2948509407                       # Cumulative packet size per connected requestor and responder (Byte)
system.membus.pktSize_system.cpu3.dcache_port::total   2948515839                       # Cumulative packet size per connected requestor and responder (Byte)
system.membus.pktSize_system.cpu3.mmu.itb.walker.port::system.mem_ctrls.port        56800                       # Cumulative packet size per connected requestor and responder (Byte)
system.membus.pktSize_system.cpu3.mmu.itb.walker.port::total        56800                       # Cumulative packet size per connected requestor and responder (Byte)
system.membus.pktSize_system.cpu3.mmu.dtb.walker.port::system.mem_ctrls.port      1318240                       # Cumulative packet size per connected requestor and responder (Byte)
system.membus.pktSize_system.cpu3.mmu.dtb.walker.port::total      1318240                       # Cumulative packet size per connected requestor and responder (Byte)
system.membus.pktSize_system.cpu3.interrupts.int_requestor::system.cpu0.interrupts.int_responder          224                       # Cumulative packet size per connected requestor and responder (Byte)
system.membus.pktSize_system.cpu3.interrupts.int_requestor::system.cpu1.interrupts.int_responder           40                       # Cumulative packet size per connected requestor and responder (Byte)
system.membus.pktSize_system.cpu3.interrupts.int_requestor::system.cpu2.interrupts.int_responder           60                       # Cumulative packet size per connected requestor and responder (Byte)
system.membus.pktSize_system.cpu3.interrupts.int_requestor::total          324                       # Cumulative packet size per connected requestor and responder (Byte)
system.membus.pktSize::total              61953471052                       # Cumulative packet size per connected requestor and responder (Byte)
system.membus.snoops                                0                       # Total snoops (Count)
system.membus.snoopTraffic                          0                       # Total snoop traffic (Byte)
system.membus.snoopFanout::samples         8341634537                       # Request fanout histogram (Count)
system.membus.snoopFanout::mean                     0                       # Request fanout histogram (Count)
system.membus.snoopFanout::stdev                    0                       # Request fanout histogram (Count)
system.membus.snoopFanout::underflows               0      0.00%      0.00% # Request fanout histogram (Count)
system.membus.snoopFanout::0               8341634537    100.00%    100.00% # Request fanout histogram (Count)
system.membus.snoopFanout::1                        0      0.00%    100.00% # Request fanout histogram (Count)
system.membus.snoopFanout::2                        0      0.00%    100.00% # Request fanout histogram (Count)
system.membus.snoopFanout::3                        0      0.00%    100.00% # Request fanout histogram (Count)
system.membus.snoopFanout::4                        0      0.00%    100.00% # Request fanout histogram (Count)
system.membus.snoopFanout::overflows                0      0.00%    100.00% # Request fanout histogram (Count)
system.membus.snoopFanout::min_value                0                       # Request fanout histogram (Count)
system.membus.snoopFanout::max_value                0                       # Request fanout histogram (Count)
system.membus.snoopFanout::total           8341634537                       # Request fanout histogram (Count)
system.membus.badaddr_responder.power_state.pwrStateResidencyTicks::UNDEFINED 5823467841000                       # Cumulative time (in ticks) in various power states (Tick)
system.membus.power_state.pwrStateResidencyTicks::UNDEFINED 5823467841000                       # Cumulative time (in ticks) in various power states (Tick)
system.membus.snoop_filter.totRequests              0                       # Total number of requests made to the snoop filter. (Count)
system.membus.snoop_filter.hitSingleRequests            0                       # Number of requests hitting in the snoop filter with a single holder of the requested data. (Count)
system.membus.snoop_filter.hitMultiRequests            0                       # Number of requests hitting in the snoop filter with multiple (>1) holders of the requested data. (Count)
system.membus.snoop_filter.totSnoops                0                       # Total number of snoops made to the snoop filter. (Count)
system.membus.snoop_filter.hitSingleSnoops            0                       # Number of snoops hitting in the snoop filter with a single holder of the requested data. (Count)
system.membus.snoop_filter.hitMultiSnoops            0                       # Number of snoops hitting in the snoop filter with multiple (>1) holders of the requested data. (Count)
system.pc.bad_addr.power_state.pwrStateResidencyTicks::UNDEFINED 5823467841000                       # Cumulative time (in ticks) in various power states (Tick)
system.pc.com_1.power_state.pwrStateResidencyTicks::UNDEFINED 5823467841000                       # Cumulative time (in ticks) in various power states (Tick)
system.pc.default_bus.power_state.pwrStateResidencyTicks::UNDEFINED 5823467841000                       # Cumulative time (in ticks) in various power states (Tick)
system.pc.empty_isa.power_state.pwrStateResidencyTicks::UNDEFINED 5823467841000                       # Cumulative time (in ticks) in various power states (Tick)
system.pc.fake_com_2.power_state.pwrStateResidencyTicks::UNDEFINED 5823467841000                       # Cumulative time (in ticks) in various power states (Tick)
system.pc.fake_com_3.power_state.pwrStateResidencyTicks::UNDEFINED 5823467841000                       # Cumulative time (in ticks) in various power states (Tick)
system.pc.fake_com_4.power_state.pwrStateResidencyTicks::UNDEFINED 5823467841000                       # Cumulative time (in ticks) in various power states (Tick)
system.pc.fake_floppy.power_state.pwrStateResidencyTicks::UNDEFINED 5823467841000                       # Cumulative time (in ticks) in various power states (Tick)
system.pc.pci_host.power_state.pwrStateResidencyTicks::UNDEFINED 5823467841000                       # Cumulative time (in ticks) in various power states (Tick)
system.pc.south_bridge.cmos.power_state.pwrStateResidencyTicks::UNDEFINED 5823467841000                       # Cumulative time (in ticks) in various power states (Tick)
system.pc.south_bridge.dma1.power_state.pwrStateResidencyTicks::UNDEFINED 5823467841000                       # Cumulative time (in ticks) in various power states (Tick)
system.pc.south_bridge.ide.disks.IdeDisk.dmaReadFullPages            0                       # Number of full page size DMA reads (not PRD). (Count)
system.pc.south_bridge.ide.disks.IdeDisk.dmaReadBytes            0                       # Number of bytes transfered via DMA reads (not PRD). (Byte)
system.pc.south_bridge.ide.disks.IdeDisk.dmaReadTxs            0                       # Number of DMA read transactions (not PRD). (Count)
system.pc.south_bridge.ide.disks.IdeDisk.dmaWriteFullPages           80                       # Number of full page size DMA writes. (Count)
system.pc.south_bridge.ide.disks.IdeDisk.dmaWriteBytes       327680                       # Number of bytes transfered via DMA writes. (Byte)
system.pc.south_bridge.ide.disks.IdeDisk.dmaWriteTxs           80                       # Number of DMA write transactions. (Count)
system.pc.south_bridge.ide.power_state.pwrStateResidencyTicks::UNDEFINED 5823467841000                       # Cumulative time (in ticks) in various power states (Tick)
system.pc.south_bridge.io_apic.power_state.pwrStateResidencyTicks::UNDEFINED 5823467841000                       # Cumulative time (in ticks) in various power states (Tick)
system.pc.south_bridge.keyboard.power_state.pwrStateResidencyTicks::UNDEFINED 5823467841000                       # Cumulative time (in ticks) in various power states (Tick)
system.pc.south_bridge.pic1.power_state.pwrStateResidencyTicks::UNDEFINED 5823467841000                       # Cumulative time (in ticks) in various power states (Tick)
system.pc.south_bridge.pic2.power_state.pwrStateResidencyTicks::UNDEFINED 5823467841000                       # Cumulative time (in ticks) in various power states (Tick)
system.pc.south_bridge.pit.power_state.pwrStateResidencyTicks::UNDEFINED 5823467841000                       # Cumulative time (in ticks) in various power states (Tick)
system.pc.south_bridge.speaker.power_state.pwrStateResidencyTicks::UNDEFINED 5823467841000                       # Cumulative time (in ticks) in various power states (Tick)
system.voltage_domain.voltage                       1                       # Voltage in Volts (Volt)
system.workload.inst.arm                            0                       # number of arm instructions executed (Count)
system.workload.inst.quiesce                        0                       # number of quiesce instructions executed (Count)

---------- End Simulation Statistics   ----------
