
---------- Begin Simulation Statistics ----------
simSeconds                                   3.487787                       # Number of seconds simulated (Second)
simTicks                                 3487787095500                       # Number of ticks simulated (Tick)
finalTick                                8228072672000                       # Number of ticks from beginning of simulation (restored from checkpoints and never reset) (Tick)
simFreq                                  1000000000000                       # The number of ticks per simulated second ((Tick/Second))
hostSeconds                                  11929.12                       # Real time elapsed on the host (Second)
hostTickRate                                292375791                       # The number of ticks simulated per host second (ticks/s) ((Tick/Second))
hostMemory                                   11612112                       # Number of bytes of host memory used (Byte)
simInsts                                  15456327753                       # Number of instructions simulated (Count)
simOps                                    23577435819                       # Number of ops (including micro ops) simulated (Count)
hostInstRate                                  1295680                       # Simulator instruction rate (inst/s) ((Count/Second))
hostOpRate                                    1976460                       # Simulator op (including micro ops) rate (op/s) ((Count/Second))
system.apicbridge.power_state.pwrStateResidencyTicks::UNDEFINED 8228072672000                       # Cumulative time (in ticks) in various power states (Tick)
system.bridge.power_state.pwrStateResidencyTicks::UNDEFINED 8228072672000                       # Cumulative time (in ticks) in various power states (Tick)
system.clk_domain.clock                          1000                       # Clock period in ticks (Tick)
system.cpu0.numCycles                      6975408978                       # Number of cpu cycles simulated (Cycle)
system.cpu0.numWorkItemsStarted                     0                       # Number of work items this cpu started (Count)
system.cpu0.numWorkItemsCompleted                   0                       # Number of work items this cpu completed (Count)
system.cpu0.exec_context.thread_0.numInsts   3687402992                       # Number of instructions committed (Count)
system.cpu0.exec_context.thread_0.numOps   5422822887                       # Number of ops (including micro ops) committed (Count)
system.cpu0.exec_context.thread_0.numIntAluAccesses   4733552654                       # Number of integer alu accesses (Count)
system.cpu0.exec_context.thread_0.numFpAluAccesses   1207116144                       # Number of float alu accesses (Count)
system.cpu0.exec_context.thread_0.numVecAluAccesses            0                       # Number of vector alu accesses (Count)
system.cpu0.exec_context.thread_0.numCallsReturns     22837283                       # Number of times a function call or return occured (Count)
system.cpu0.exec_context.thread_0.numCondCtrlInsts    223078427                       # Number of instructions that are conditional controls (Count)
system.cpu0.exec_context.thread_0.numIntInsts   4733552654                       # Number of integer instructions (Count)
system.cpu0.exec_context.thread_0.numFpInsts   1207116144                       # Number of float instructions (Count)
system.cpu0.exec_context.thread_0.numVecInsts            0                       # Number of vector instructions (Count)
system.cpu0.exec_context.thread_0.numIntRegReads   6290530907                       # Number of times the integer registers were read (Count)
system.cpu0.exec_context.thread_0.numIntRegWrites   3489818239                       # Number of times the integer registers were written (Count)
system.cpu0.exec_context.thread_0.numFpRegReads    891564226                       # Number of times the floating registers were read (Count)
system.cpu0.exec_context.thread_0.numFpRegWrites    991419425                       # Number of times the floating registers were written (Count)
system.cpu0.exec_context.thread_0.numVecRegReads            0                       # Number of times the vector registers were read (Count)
system.cpu0.exec_context.thread_0.numVecRegWrites            0                       # Number of times the vector registers were written (Count)
system.cpu0.exec_context.thread_0.numVecPredRegReads            0                       # Number of times the predicate registers were read (Count)
system.cpu0.exec_context.thread_0.numVecPredRegWrites            0                       # Number of times the predicate registers were written (Count)
system.cpu0.exec_context.thread_0.numCCRegReads   1446599216                       # Number of times the CC registers were read (Count)
system.cpu0.exec_context.thread_0.numCCRegWrites   2015452236                       # Number of times the CC registers were written (Count)
system.cpu0.exec_context.thread_0.numMiscRegReads   2605549633                       # Number of times the Misc registers were read (Count)
system.cpu0.exec_context.thread_0.numMiscRegWrites       208831                       # Number of times the Misc registers were written (Count)
system.cpu0.exec_context.thread_0.numMemRefs   2076135878                       # Number of memory refs (Count)
system.cpu0.exec_context.thread_0.numLoadInsts   1624355812                       # Number of load instructions (Count)
system.cpu0.exec_context.thread_0.numStoreInsts    451780066                       # Number of store instructions (Count)
system.cpu0.exec_context.thread_0.numIdleCycles 77566645.831097                       # Number of idle cycles (Cycle)
system.cpu0.exec_context.thread_0.numBusyCycles 6897842332.168903                       # Number of busy cycles (Cycle)
system.cpu0.exec_context.thread_0.notIdleFraction     0.988880                       # Percentage of non-idle cycles (Ratio)
system.cpu0.exec_context.thread_0.idleFraction     0.011120                       # Percentage of idle cycles (Ratio)
system.cpu0.exec_context.thread_0.numBranches    266533392                       # Number of branches fetched (Count)
system.cpu0.exec_context.thread_0.statExecutedInstType::No_OpClass        67266      0.00%      0.00% # Class of executed instruction. (Count)
system.cpu0.exec_context.thread_0.statExecutedInstType::IntAlu   2658373427     49.02%     49.02% # Class of executed instruction. (Count)
system.cpu0.exec_context.thread_0.statExecutedInstType::IntMult      2857602      0.05%     49.08% # Class of executed instruction. (Count)
system.cpu0.exec_context.thread_0.statExecutedInstType::IntDiv      1156868      0.02%     49.10% # Class of executed instruction. (Count)
system.cpu0.exec_context.thread_0.statExecutedInstType::FloatAdd    408887038      7.54%     56.64% # Class of executed instruction. (Count)
system.cpu0.exec_context.thread_0.statExecutedInstType::FloatCmp            0      0.00%     56.64% # Class of executed instruction. (Count)
system.cpu0.exec_context.thread_0.statExecutedInstType::FloatCvt         9264      0.00%     56.64% # Class of executed instruction. (Count)
system.cpu0.exec_context.thread_0.statExecutedInstType::FloatMult            0      0.00%     56.64% # Class of executed instruction. (Count)
system.cpu0.exec_context.thread_0.statExecutedInstType::FloatMultAcc            0      0.00%     56.64% # Class of executed instruction. (Count)
system.cpu0.exec_context.thread_0.statExecutedInstType::FloatDiv            0      0.00%     56.64% # Class of executed instruction. (Count)
system.cpu0.exec_context.thread_0.statExecutedInstType::FloatMisc            0      0.00%     56.64% # Class of executed instruction. (Count)
system.cpu0.exec_context.thread_0.statExecutedInstType::FloatSqrt            0      0.00%     56.64% # Class of executed instruction. (Count)
system.cpu0.exec_context.thread_0.statExecutedInstType::SimdAdd         2992      0.00%     56.64% # Class of executed instruction. (Count)
system.cpu0.exec_context.thread_0.statExecutedInstType::SimdAddAcc            0      0.00%     56.64% # Class of executed instruction. (Count)
system.cpu0.exec_context.thread_0.statExecutedInstType::SimdAlu     21651298      0.40%     57.04% # Class of executed instruction. (Count)
system.cpu0.exec_context.thread_0.statExecutedInstType::SimdCmp            0      0.00%     57.04% # Class of executed instruction. (Count)
system.cpu0.exec_context.thread_0.statExecutedInstType::SimdCvt         1412      0.00%     57.04% # Class of executed instruction. (Count)
system.cpu0.exec_context.thread_0.statExecutedInstType::SimdMisc     13850235      0.26%     57.29% # Class of executed instruction. (Count)
system.cpu0.exec_context.thread_0.statExecutedInstType::SimdMult            0      0.00%     57.29% # Class of executed instruction. (Count)
system.cpu0.exec_context.thread_0.statExecutedInstType::SimdMultAcc            0      0.00%     57.29% # Class of executed instruction. (Count)
system.cpu0.exec_context.thread_0.statExecutedInstType::SimdShift         1488      0.00%     57.29% # Class of executed instruction. (Count)
system.cpu0.exec_context.thread_0.statExecutedInstType::SimdShiftAcc            0      0.00%     57.29% # Class of executed instruction. (Count)
system.cpu0.exec_context.thread_0.statExecutedInstType::SimdDiv            0      0.00%     57.29% # Class of executed instruction. (Count)
system.cpu0.exec_context.thread_0.statExecutedInstType::SimdSqrt            0      0.00%     57.29% # Class of executed instruction. (Count)
system.cpu0.exec_context.thread_0.statExecutedInstType::SimdFloatAdd    113378943      2.09%     59.38% # Class of executed instruction. (Count)
system.cpu0.exec_context.thread_0.statExecutedInstType::SimdFloatAlu            0      0.00%     59.38% # Class of executed instruction. (Count)
system.cpu0.exec_context.thread_0.statExecutedInstType::SimdFloatCmp            0      0.00%     59.38% # Class of executed instruction. (Count)
system.cpu0.exec_context.thread_0.statExecutedInstType::SimdFloatCvt     79713049      1.47%     60.85% # Class of executed instruction. (Count)
system.cpu0.exec_context.thread_0.statExecutedInstType::SimdFloatDiv      1309743      0.02%     60.88% # Class of executed instruction. (Count)
system.cpu0.exec_context.thread_0.statExecutedInstType::SimdFloatMisc            0      0.00%     60.88% # Class of executed instruction. (Count)
system.cpu0.exec_context.thread_0.statExecutedInstType::SimdFloatMult     43162369      0.80%     61.67% # Class of executed instruction. (Count)
system.cpu0.exec_context.thread_0.statExecutedInstType::SimdFloatMultAcc            0      0.00%     61.67% # Class of executed instruction. (Count)
system.cpu0.exec_context.thread_0.statExecutedInstType::SimdFloatSqrt      2265477      0.04%     61.71% # Class of executed instruction. (Count)
system.cpu0.exec_context.thread_0.statExecutedInstType::SimdReduceAdd            0      0.00%     61.71% # Class of executed instruction. (Count)
system.cpu0.exec_context.thread_0.statExecutedInstType::SimdReduceAlu            0      0.00%     61.71% # Class of executed instruction. (Count)
system.cpu0.exec_context.thread_0.statExecutedInstType::SimdReduceCmp            0      0.00%     61.71% # Class of executed instruction. (Count)
system.cpu0.exec_context.thread_0.statExecutedInstType::SimdFloatReduceAdd            0      0.00%     61.71% # Class of executed instruction. (Count)
system.cpu0.exec_context.thread_0.statExecutedInstType::SimdFloatReduceCmp            0      0.00%     61.71% # Class of executed instruction. (Count)
system.cpu0.exec_context.thread_0.statExecutedInstType::SimdAes            0      0.00%     61.71% # Class of executed instruction. (Count)
system.cpu0.exec_context.thread_0.statExecutedInstType::SimdAesMix            0      0.00%     61.71% # Class of executed instruction. (Count)
system.cpu0.exec_context.thread_0.statExecutedInstType::SimdSha1Hash            0      0.00%     61.71% # Class of executed instruction. (Count)
system.cpu0.exec_context.thread_0.statExecutedInstType::SimdSha1Hash2            0      0.00%     61.71% # Class of executed instruction. (Count)
system.cpu0.exec_context.thread_0.statExecutedInstType::SimdSha256Hash            0      0.00%     61.71% # Class of executed instruction. (Count)
system.cpu0.exec_context.thread_0.statExecutedInstType::SimdSha256Hash2            0      0.00%     61.71% # Class of executed instruction. (Count)
system.cpu0.exec_context.thread_0.statExecutedInstType::SimdShaSigma2            0      0.00%     61.71% # Class of executed instruction. (Count)
system.cpu0.exec_context.thread_0.statExecutedInstType::SimdShaSigma3            0      0.00%     61.71% # Class of executed instruction. (Count)
system.cpu0.exec_context.thread_0.statExecutedInstType::SimdPredAlu            0      0.00%     61.71% # Class of executed instruction. (Count)
system.cpu0.exec_context.thread_0.statExecutedInstType::MemRead   1284556736     23.69%     85.40% # Class of executed instruction. (Count)
system.cpu0.exec_context.thread_0.statExecutedInstType::MemWrite    282444910      5.21%     90.61% # Class of executed instruction. (Count)
system.cpu0.exec_context.thread_0.statExecutedInstType::FloatMemRead    339799076      6.27%     96.88% # Class of executed instruction. (Count)
system.cpu0.exec_context.thread_0.statExecutedInstType::FloatMemWrite    169335156      3.12%    100.00% # Class of executed instruction. (Count)
system.cpu0.exec_context.thread_0.statExecutedInstType::IprAccess            0      0.00%    100.00% # Class of executed instruction. (Count)
system.cpu0.exec_context.thread_0.statExecutedInstType::InstPrefetch            0      0.00%    100.00% # Class of executed instruction. (Count)
system.cpu0.exec_context.thread_0.statExecutedInstType::total   5422824349                       # Class of executed instruction. (Count)
system.cpu0.interrupts.clk_domain.clock          8000                       # Clock period in ticks (Tick)
system.cpu0.mmu.dtb.rdAccesses             1631250690                       # TLB accesses on read requests (Count)
system.cpu0.mmu.dtb.wrAccesses              451797962                       # TLB accesses on write requests (Count)
system.cpu0.mmu.dtb.rdMisses                   434628                       # TLB misses on read requests (Count)
system.cpu0.mmu.dtb.wrMisses                    80325                       # TLB misses on write requests (Count)
system.cpu0.mmu.dtb.walker.power_state.pwrStateResidencyTicks::UNDEFINED 8228072672000                       # Cumulative time (in ticks) in various power states (Tick)
system.cpu0.mmu.itb.rdAccesses                      0                       # TLB accesses on read requests (Count)
system.cpu0.mmu.itb.wrAccesses             5162746229                       # TLB accesses on write requests (Count)
system.cpu0.mmu.itb.rdMisses                        0                       # TLB misses on read requests (Count)
system.cpu0.mmu.itb.wrMisses                     3206                       # TLB misses on write requests (Count)
system.cpu0.mmu.itb.walker.power_state.pwrStateResidencyTicks::UNDEFINED 8228072672000                       # Cumulative time (in ticks) in various power states (Tick)
system.cpu0.power_state.numTransitions            113                       # Number of power state transitions (Count)
system.cpu0.power_state.ticksClkGated::samples           57                       # Distribution of time spent in the clock gated state (Tick)
system.cpu0.power_state.ticksClkGated::mean 680425289.473684                       # Distribution of time spent in the clock gated state (Tick)
system.cpu0.power_state.ticksClkGated::stdev 373751070.503364                       # Distribution of time spent in the clock gated state (Tick)
system.cpu0.power_state.ticksClkGated::1000-5e+10           57    100.00%    100.00% # Distribution of time spent in the clock gated state (Tick)
system.cpu0.power_state.ticksClkGated::min_value     34504500                       # Distribution of time spent in the clock gated state (Tick)
system.cpu0.power_state.ticksClkGated::max_value    997002000                       # Distribution of time spent in the clock gated state (Tick)
system.cpu0.power_state.ticksClkGated::total           57                       # Distribution of time spent in the clock gated state (Tick)
system.cpu0.power_state.pwrStateResidencyTicks::ON 3449007304000                       # Cumulative time (in ticks) in various power states (Tick)
system.cpu0.power_state.pwrStateResidencyTicks::CLK_GATED  38784241500                       # Cumulative time (in ticks) in various power states (Tick)
system.cpu0.thread_0.numInsts                       0                       # Number of Instructions committed (Count)
system.cpu0.thread_0.numOps                         0                       # Number of Ops committed (Count)
system.cpu0.thread_0.numMemRefs                     0                       # Number of Memory References (Count)
system.cpu1.numCycles                      6975752778                       # Number of cpu cycles simulated (Cycle)
system.cpu1.numWorkItemsStarted                     0                       # Number of work items this cpu started (Count)
system.cpu1.numWorkItemsCompleted                   0                       # Number of work items this cpu completed (Count)
system.cpu1.exec_context.thread_0.numInsts   3630868123                       # Number of instructions committed (Count)
system.cpu1.exec_context.thread_0.numOps   5225008747                       # Number of ops (including micro ops) committed (Count)
system.cpu1.exec_context.thread_0.numIntAluAccesses   4587523918                       # Number of integer alu accesses (Count)
system.cpu1.exec_context.thread_0.numFpAluAccesses   1046906058                       # Number of float alu accesses (Count)
system.cpu1.exec_context.thread_0.numVecAluAccesses            0                       # Number of vector alu accesses (Count)
system.cpu1.exec_context.thread_0.numCallsReturns     27142763                       # Number of times a function call or return occured (Count)
system.cpu1.exec_context.thread_0.numCondCtrlInsts    208703805                       # Number of instructions that are conditional controls (Count)
system.cpu1.exec_context.thread_0.numIntInsts   4587523918                       # Number of integer instructions (Count)
system.cpu1.exec_context.thread_0.numFpInsts   1046906058                       # Number of float instructions (Count)
system.cpu1.exec_context.thread_0.numVecInsts            0                       # Number of vector instructions (Count)
system.cpu1.exec_context.thread_0.numIntRegReads   6165645471                       # Number of times the integer registers were read (Count)
system.cpu1.exec_context.thread_0.numIntRegWrites   3485444841                       # Number of times the integer registers were written (Count)
system.cpu1.exec_context.thread_0.numFpRegReads    991500608                       # Number of times the floating registers were read (Count)
system.cpu1.exec_context.thread_0.numFpRegWrites    878597588                       # Number of times the floating registers were written (Count)
system.cpu1.exec_context.thread_0.numVecRegReads            0                       # Number of times the vector registers were read (Count)
system.cpu1.exec_context.thread_0.numVecRegWrites            0                       # Number of times the vector registers were written (Count)
system.cpu1.exec_context.thread_0.numVecPredRegReads            0                       # Number of times the predicate registers were read (Count)
system.cpu1.exec_context.thread_0.numVecPredRegWrites            0                       # Number of times the predicate registers were written (Count)
system.cpu1.exec_context.thread_0.numCCRegReads   1384944884                       # Number of times the CC registers were read (Count)
system.cpu1.exec_context.thread_0.numCCRegWrites   1963977305                       # Number of times the CC registers were written (Count)
system.cpu1.exec_context.thread_0.numMiscRegReads   2425181320                       # Number of times the Misc registers were read (Count)
system.cpu1.exec_context.thread_0.numMiscRegWrites       214549                       # Number of times the Misc registers were written (Count)
system.cpu1.exec_context.thread_0.numMemRefs   1885074554                       # Number of memory refs (Count)
system.cpu1.exec_context.thread_0.numLoadInsts   1493987038                       # Number of load instructions (Count)
system.cpu1.exec_context.thread_0.numStoreInsts    391087516                       # Number of store instructions (Count)
system.cpu1.exec_context.thread_0.numIdleCycles 327809186.970293                       # Number of idle cycles (Cycle)
system.cpu1.exec_context.thread_0.numBusyCycles 6647943591.029707                       # Number of busy cycles (Cycle)
system.cpu1.exec_context.thread_0.notIdleFraction     0.953007                       # Percentage of non-idle cycles (Ratio)
system.cpu1.exec_context.thread_0.idleFraction     0.046993                       # Percentage of idle cycles (Ratio)
system.cpu1.exec_context.thread_0.numBranches    261701335                       # Number of branches fetched (Count)
system.cpu1.exec_context.thread_0.statExecutedInstType::No_OpClass        48663      0.00%      0.00% # Class of executed instruction. (Count)
system.cpu1.exec_context.thread_0.statExecutedInstType::IntAlu   2731190454     52.27%     52.27% # Class of executed instruction. (Count)
system.cpu1.exec_context.thread_0.statExecutedInstType::IntMult       947747      0.02%     52.29% # Class of executed instruction. (Count)
system.cpu1.exec_context.thread_0.statExecutedInstType::IntDiv       271753      0.01%     52.30% # Class of executed instruction. (Count)
system.cpu1.exec_context.thread_0.statExecutedInstType::FloatAdd    290425485      5.56%     57.85% # Class of executed instruction. (Count)
system.cpu1.exec_context.thread_0.statExecutedInstType::FloatCmp            0      0.00%     57.85% # Class of executed instruction. (Count)
system.cpu1.exec_context.thread_0.statExecutedInstType::FloatCvt         6416      0.00%     57.85% # Class of executed instruction. (Count)
system.cpu1.exec_context.thread_0.statExecutedInstType::FloatMult            0      0.00%     57.85% # Class of executed instruction. (Count)
system.cpu1.exec_context.thread_0.statExecutedInstType::FloatMultAcc            0      0.00%     57.85% # Class of executed instruction. (Count)
system.cpu1.exec_context.thread_0.statExecutedInstType::FloatDiv            0      0.00%     57.85% # Class of executed instruction. (Count)
system.cpu1.exec_context.thread_0.statExecutedInstType::FloatMisc            0      0.00%     57.85% # Class of executed instruction. (Count)
system.cpu1.exec_context.thread_0.statExecutedInstType::FloatSqrt            0      0.00%     57.85% # Class of executed instruction. (Count)
system.cpu1.exec_context.thread_0.statExecutedInstType::SimdAdd          192      0.00%     57.85% # Class of executed instruction. (Count)
system.cpu1.exec_context.thread_0.statExecutedInstType::SimdAddAcc            0      0.00%     57.85% # Class of executed instruction. (Count)
system.cpu1.exec_context.thread_0.statExecutedInstType::SimdAlu     41880858      0.80%     58.66% # Class of executed instruction. (Count)
system.cpu1.exec_context.thread_0.statExecutedInstType::SimdCmp            0      0.00%     58.66% # Class of executed instruction. (Count)
system.cpu1.exec_context.thread_0.statExecutedInstType::SimdCvt          736      0.00%     58.66% # Class of executed instruction. (Count)
system.cpu1.exec_context.thread_0.statExecutedInstType::SimdMisc     26635728      0.51%     59.17% # Class of executed instruction. (Count)
system.cpu1.exec_context.thread_0.statExecutedInstType::SimdMult            0      0.00%     59.17% # Class of executed instruction. (Count)
system.cpu1.exec_context.thread_0.statExecutedInstType::SimdMultAcc            0      0.00%     59.17% # Class of executed instruction. (Count)
system.cpu1.exec_context.thread_0.statExecutedInstType::SimdShift           77      0.00%     59.17% # Class of executed instruction. (Count)
system.cpu1.exec_context.thread_0.statExecutedInstType::SimdShiftAcc            0      0.00%     59.17% # Class of executed instruction. (Count)
system.cpu1.exec_context.thread_0.statExecutedInstType::SimdDiv            0      0.00%     59.17% # Class of executed instruction. (Count)
system.cpu1.exec_context.thread_0.statExecutedInstType::SimdSqrt            0      0.00%     59.17% # Class of executed instruction. (Count)
system.cpu1.exec_context.thread_0.statExecutedInstType::SimdFloatAdd    112940283      2.16%     61.33% # Class of executed instruction. (Count)
system.cpu1.exec_context.thread_0.statExecutedInstType::SimdFloatAlu            0      0.00%     61.33% # Class of executed instruction. (Count)
system.cpu1.exec_context.thread_0.statExecutedInstType::SimdFloatCmp            0      0.00%     61.33% # Class of executed instruction. (Count)
system.cpu1.exec_context.thread_0.statExecutedInstType::SimdFloatCvt     84451234      1.62%     62.94% # Class of executed instruction. (Count)
system.cpu1.exec_context.thread_0.statExecutedInstType::SimdFloatDiv      4104770      0.08%     63.02% # Class of executed instruction. (Count)
system.cpu1.exec_context.thread_0.statExecutedInstType::SimdFloatMisc            0      0.00%     63.02% # Class of executed instruction. (Count)
system.cpu1.exec_context.thread_0.statExecutedInstType::SimdFloatMult     45013268      0.86%     63.88% # Class of executed instruction. (Count)
system.cpu1.exec_context.thread_0.statExecutedInstType::SimdFloatMultAcc            0      0.00%     63.88% # Class of executed instruction. (Count)
system.cpu1.exec_context.thread_0.statExecutedInstType::SimdFloatSqrt      2019024      0.04%     63.92% # Class of executed instruction. (Count)
system.cpu1.exec_context.thread_0.statExecutedInstType::SimdReduceAdd            0      0.00%     63.92% # Class of executed instruction. (Count)
system.cpu1.exec_context.thread_0.statExecutedInstType::SimdReduceAlu            0      0.00%     63.92% # Class of executed instruction. (Count)
system.cpu1.exec_context.thread_0.statExecutedInstType::SimdReduceCmp            0      0.00%     63.92% # Class of executed instruction. (Count)
system.cpu1.exec_context.thread_0.statExecutedInstType::SimdFloatReduceAdd            0      0.00%     63.92% # Class of executed instruction. (Count)
system.cpu1.exec_context.thread_0.statExecutedInstType::SimdFloatReduceCmp            0      0.00%     63.92% # Class of executed instruction. (Count)
system.cpu1.exec_context.thread_0.statExecutedInstType::SimdAes            0      0.00%     63.92% # Class of executed instruction. (Count)
system.cpu1.exec_context.thread_0.statExecutedInstType::SimdAesMix            0      0.00%     63.92% # Class of executed instruction. (Count)
system.cpu1.exec_context.thread_0.statExecutedInstType::SimdSha1Hash            0      0.00%     63.92% # Class of executed instruction. (Count)
system.cpu1.exec_context.thread_0.statExecutedInstType::SimdSha1Hash2            0      0.00%     63.92% # Class of executed instruction. (Count)
system.cpu1.exec_context.thread_0.statExecutedInstType::SimdSha256Hash            0      0.00%     63.92% # Class of executed instruction. (Count)
system.cpu1.exec_context.thread_0.statExecutedInstType::SimdSha256Hash2            0      0.00%     63.92% # Class of executed instruction. (Count)
system.cpu1.exec_context.thread_0.statExecutedInstType::SimdShaSigma2            0      0.00%     63.92% # Class of executed instruction. (Count)
system.cpu1.exec_context.thread_0.statExecutedInstType::SimdShaSigma3            0      0.00%     63.92% # Class of executed instruction. (Count)
system.cpu1.exec_context.thread_0.statExecutedInstType::SimdPredAlu            0      0.00%     63.92% # Class of executed instruction. (Count)
system.cpu1.exec_context.thread_0.statExecutedInstType::MemRead   1223999944     23.43%     87.35% # Class of executed instruction. (Count)
system.cpu1.exec_context.thread_0.statExecutedInstType::MemWrite    274168861      5.25%     92.60% # Class of executed instruction. (Count)
system.cpu1.exec_context.thread_0.statExecutedInstType::FloatMemRead    269987094      5.17%     97.76% # Class of executed instruction. (Count)
system.cpu1.exec_context.thread_0.statExecutedInstType::FloatMemWrite    116918655      2.24%    100.00% # Class of executed instruction. (Count)
system.cpu1.exec_context.thread_0.statExecutedInstType::IprAccess            0      0.00%    100.00% # Class of executed instruction. (Count)
system.cpu1.exec_context.thread_0.statExecutedInstType::InstPrefetch            0      0.00%    100.00% # Class of executed instruction. (Count)
system.cpu1.exec_context.thread_0.statExecutedInstType::total   5225011242                       # Class of executed instruction. (Count)
system.cpu1.interrupts.clk_domain.clock          8000                       # Clock period in ticks (Tick)
system.cpu1.mmu.dtb.rdAccesses             1499324453                       # TLB accesses on read requests (Count)
system.cpu1.mmu.dtb.wrAccesses              391175908                       # TLB accesses on write requests (Count)
system.cpu1.mmu.dtb.rdMisses                   483954                       # TLB misses on read requests (Count)
system.cpu1.mmu.dtb.wrMisses                    82608                       # TLB misses on write requests (Count)
system.cpu1.mmu.dtb.walker.power_state.pwrStateResidencyTicks::UNDEFINED 8228072672000                       # Cumulative time (in ticks) in various power states (Tick)
system.cpu1.mmu.itb.rdAccesses                      0                       # TLB accesses on read requests (Count)
system.cpu1.mmu.itb.wrAccesses             5053805156                       # TLB accesses on write requests (Count)
system.cpu1.mmu.itb.rdMisses                        0                       # TLB misses on read requests (Count)
system.cpu1.mmu.itb.wrMisses                     1055                       # TLB misses on write requests (Count)
system.cpu1.mmu.itb.walker.power_state.pwrStateResidencyTicks::UNDEFINED 8228072672000                       # Cumulative time (in ticks) in various power states (Tick)
system.cpu1.power_state.numTransitions            340                       # Number of power state transitions (Count)
system.cpu1.power_state.ticksClkGated::samples          170                       # Distribution of time spent in the clock gated state (Tick)
system.cpu1.power_state.ticksClkGated::mean 964119984.388235                       # Distribution of time spent in the clock gated state (Tick)
system.cpu1.power_state.ticksClkGated::stdev 159950159.201582                       # Distribution of time spent in the clock gated state (Tick)
system.cpu1.power_state.ticksClkGated::1000-5e+10          170    100.00%    100.00% # Distribution of time spent in the clock gated state (Tick)
system.cpu1.power_state.ticksClkGated::min_value      4639500                       # Distribution of time spent in the clock gated state (Tick)
system.cpu1.power_state.ticksClkGated::max_value    997974000                       # Distribution of time spent in the clock gated state (Tick)
system.cpu1.power_state.ticksClkGated::total          170                       # Distribution of time spent in the clock gated state (Tick)
system.cpu1.power_state.pwrStateResidencyTicks::ON 3420151608647                       # Cumulative time (in ticks) in various power states (Tick)
system.cpu1.power_state.pwrStateResidencyTicks::CLK_GATED 163900397346                       # Cumulative time (in ticks) in various power states (Tick)
system.cpu1.thread_0.numInsts                       0                       # Number of Instructions committed (Count)
system.cpu1.thread_0.numOps                         0                       # Number of Ops committed (Count)
system.cpu1.thread_0.numMemRefs                     0                       # Number of Memory References (Count)
system.cpu2.numCycles                      6975699519                       # Number of cpu cycles simulated (Cycle)
system.cpu2.numWorkItemsStarted                     0                       # Number of work items this cpu started (Count)
system.cpu2.numWorkItemsCompleted                   0                       # Number of work items this cpu completed (Count)
system.cpu2.exec_context.thread_0.numInsts   3535006499                       # Number of instructions committed (Count)
system.cpu2.exec_context.thread_0.numOps   5230672400                       # Number of ops (including micro ops) committed (Count)
system.cpu2.exec_context.thread_0.numIntAluAccesses   4542217484                       # Number of integer alu accesses (Count)
system.cpu2.exec_context.thread_0.numFpAluAccesses   1195232398                       # Number of float alu accesses (Count)
system.cpu2.exec_context.thread_0.numVecAluAccesses            0                       # Number of vector alu accesses (Count)
system.cpu2.exec_context.thread_0.numCallsReturns     20267178                       # Number of times a function call or return occured (Count)
system.cpu2.exec_context.thread_0.numCondCtrlInsts    216890907                       # Number of instructions that are conditional controls (Count)
system.cpu2.exec_context.thread_0.numIntInsts   4542217484                       # Number of integer instructions (Count)
system.cpu2.exec_context.thread_0.numFpInsts   1195232398                       # Number of float instructions (Count)
system.cpu2.exec_context.thread_0.numVecInsts            0                       # Number of vector instructions (Count)
system.cpu2.exec_context.thread_0.numIntRegReads   6045595426                       # Number of times the integer registers were read (Count)
system.cpu2.exec_context.thread_0.numIntRegWrites   3334812087                       # Number of times the integer registers were written (Count)
system.cpu2.exec_context.thread_0.numFpRegReads    979347168                       # Number of times the floating registers were read (Count)
system.cpu2.exec_context.thread_0.numFpRegWrites    982582153                       # Number of times the floating registers were written (Count)
system.cpu2.exec_context.thread_0.numVecRegReads            0                       # Number of times the vector registers were read (Count)
system.cpu2.exec_context.thread_0.numVecRegWrites            0                       # Number of times the vector registers were written (Count)
system.cpu2.exec_context.thread_0.numVecPredRegReads            0                       # Number of times the predicate registers were read (Count)
system.cpu2.exec_context.thread_0.numVecPredRegWrites            0                       # Number of times the predicate registers were written (Count)
system.cpu2.exec_context.thread_0.numCCRegReads   1395865813                       # Number of times the CC registers were read (Count)
system.cpu2.exec_context.thread_0.numCCRegWrites   1881799638                       # Number of times the CC registers were written (Count)
system.cpu2.exec_context.thread_0.numMiscRegReads   2495388320                       # Number of times the Misc registers were read (Count)
system.cpu2.exec_context.thread_0.numMiscRegWrites       162323                       # Number of times the Misc registers were written (Count)
system.cpu2.exec_context.thread_0.numMemRefs   1979072704                       # Number of memory refs (Count)
system.cpu2.exec_context.thread_0.numLoadInsts   1533003756                       # Number of load instructions (Count)
system.cpu2.exec_context.thread_0.numStoreInsts    446068948                       # Number of store instructions (Count)
system.cpu2.exec_context.thread_0.numIdleCycles 296562592.155234                       # Number of idle cycles (Cycle)
system.cpu2.exec_context.thread_0.numBusyCycles 6679136926.844766                       # Number of busy cycles (Cycle)
system.cpu2.exec_context.thread_0.notIdleFraction     0.957486                       # Percentage of non-idle cycles (Ratio)
system.cpu2.exec_context.thread_0.idleFraction     0.042514                       # Percentage of idle cycles (Ratio)
system.cpu2.exec_context.thread_0.numBranches    256377614                       # Number of branches fetched (Count)
system.cpu2.exec_context.thread_0.statExecutedInstType::No_OpClass        32306      0.00%      0.00% # Class of executed instruction. (Count)
system.cpu2.exec_context.thread_0.statExecutedInstType::IntAlu   2553779916     48.82%     48.82% # Class of executed instruction. (Count)
system.cpu2.exec_context.thread_0.statExecutedInstType::IntMult      5569589      0.11%     48.93% # Class of executed instruction. (Count)
system.cpu2.exec_context.thread_0.statExecutedInstType::IntDiv      3486631      0.07%     49.00% # Class of executed instruction. (Count)
system.cpu2.exec_context.thread_0.statExecutedInstType::FloatAdd    371449766      7.10%     56.10% # Class of executed instruction. (Count)
system.cpu2.exec_context.thread_0.statExecutedInstType::FloatCmp            0      0.00%     56.10% # Class of executed instruction. (Count)
system.cpu2.exec_context.thread_0.statExecutedInstType::FloatCvt         5840      0.00%     56.10% # Class of executed instruction. (Count)
system.cpu2.exec_context.thread_0.statExecutedInstType::FloatMult            0      0.00%     56.10% # Class of executed instruction. (Count)
system.cpu2.exec_context.thread_0.statExecutedInstType::FloatMultAcc            0      0.00%     56.10% # Class of executed instruction. (Count)
system.cpu2.exec_context.thread_0.statExecutedInstType::FloatDiv            0      0.00%     56.10% # Class of executed instruction. (Count)
system.cpu2.exec_context.thread_0.statExecutedInstType::FloatMisc            0      0.00%     56.10% # Class of executed instruction. (Count)
system.cpu2.exec_context.thread_0.statExecutedInstType::FloatSqrt            0      0.00%     56.10% # Class of executed instruction. (Count)
system.cpu2.exec_context.thread_0.statExecutedInstType::SimdAdd          490      0.00%     56.10% # Class of executed instruction. (Count)
system.cpu2.exec_context.thread_0.statExecutedInstType::SimdAddAcc            0      0.00%     56.10% # Class of executed instruction. (Count)
system.cpu2.exec_context.thread_0.statExecutedInstType::SimdAlu     30890162      0.59%     56.69% # Class of executed instruction. (Count)
system.cpu2.exec_context.thread_0.statExecutedInstType::SimdCmp            0      0.00%     56.69% # Class of executed instruction. (Count)
system.cpu2.exec_context.thread_0.statExecutedInstType::SimdCvt         1326      0.00%     56.69% # Class of executed instruction. (Count)
system.cpu2.exec_context.thread_0.statExecutedInstType::SimdMisc     24978319      0.48%     57.17% # Class of executed instruction. (Count)
system.cpu2.exec_context.thread_0.statExecutedInstType::SimdMult            0      0.00%     57.17% # Class of executed instruction. (Count)
system.cpu2.exec_context.thread_0.statExecutedInstType::SimdMultAcc            0      0.00%     57.17% # Class of executed instruction. (Count)
system.cpu2.exec_context.thread_0.statExecutedInstType::SimdShift          235      0.00%     57.17% # Class of executed instruction. (Count)
system.cpu2.exec_context.thread_0.statExecutedInstType::SimdShiftAcc            0      0.00%     57.17% # Class of executed instruction. (Count)
system.cpu2.exec_context.thread_0.statExecutedInstType::SimdDiv            0      0.00%     57.17% # Class of executed instruction. (Count)
system.cpu2.exec_context.thread_0.statExecutedInstType::SimdSqrt            0      0.00%     57.17% # Class of executed instruction. (Count)
system.cpu2.exec_context.thread_0.statExecutedInstType::SimdFloatAdd    115854143      2.21%     59.38% # Class of executed instruction. (Count)
system.cpu2.exec_context.thread_0.statExecutedInstType::SimdFloatAlu            0      0.00%     59.38% # Class of executed instruction. (Count)
system.cpu2.exec_context.thread_0.statExecutedInstType::SimdFloatCmp            0      0.00%     59.38% # Class of executed instruction. (Count)
system.cpu2.exec_context.thread_0.statExecutedInstType::SimdFloatCvt     96155663      1.84%     61.22% # Class of executed instruction. (Count)
system.cpu2.exec_context.thread_0.statExecutedInstType::SimdFloatDiv      1592939      0.03%     61.25% # Class of executed instruction. (Count)
system.cpu2.exec_context.thread_0.statExecutedInstType::SimdFloatMisc            0      0.00%     61.25% # Class of executed instruction. (Count)
system.cpu2.exec_context.thread_0.statExecutedInstType::SimdFloatMult     46180175      0.88%     62.13% # Class of executed instruction. (Count)
system.cpu2.exec_context.thread_0.statExecutedInstType::SimdFloatMultAcc            0      0.00%     62.13% # Class of executed instruction. (Count)
system.cpu2.exec_context.thread_0.statExecutedInstType::SimdFloatSqrt      1622886      0.03%     62.16% # Class of executed instruction. (Count)
system.cpu2.exec_context.thread_0.statExecutedInstType::SimdReduceAdd            0      0.00%     62.16% # Class of executed instruction. (Count)
system.cpu2.exec_context.thread_0.statExecutedInstType::SimdReduceAlu            0      0.00%     62.16% # Class of executed instruction. (Count)
system.cpu2.exec_context.thread_0.statExecutedInstType::SimdReduceCmp            0      0.00%     62.16% # Class of executed instruction. (Count)
system.cpu2.exec_context.thread_0.statExecutedInstType::SimdFloatReduceAdd            0      0.00%     62.16% # Class of executed instruction. (Count)
system.cpu2.exec_context.thread_0.statExecutedInstType::SimdFloatReduceCmp            0      0.00%     62.16% # Class of executed instruction. (Count)
system.cpu2.exec_context.thread_0.statExecutedInstType::SimdAes            0      0.00%     62.16% # Class of executed instruction. (Count)
system.cpu2.exec_context.thread_0.statExecutedInstType::SimdAesMix            0      0.00%     62.16% # Class of executed instruction. (Count)
system.cpu2.exec_context.thread_0.statExecutedInstType::SimdSha1Hash            0      0.00%     62.16% # Class of executed instruction. (Count)
system.cpu2.exec_context.thread_0.statExecutedInstType::SimdSha1Hash2            0      0.00%     62.16% # Class of executed instruction. (Count)
system.cpu2.exec_context.thread_0.statExecutedInstType::SimdSha256Hash            0      0.00%     62.16% # Class of executed instruction. (Count)
system.cpu2.exec_context.thread_0.statExecutedInstType::SimdSha256Hash2            0      0.00%     62.16% # Class of executed instruction. (Count)
system.cpu2.exec_context.thread_0.statExecutedInstType::SimdShaSigma2            0      0.00%     62.16% # Class of executed instruction. (Count)
system.cpu2.exec_context.thread_0.statExecutedInstType::SimdShaSigma3            0      0.00%     62.16% # Class of executed instruction. (Count)
system.cpu2.exec_context.thread_0.statExecutedInstType::SimdPredAlu            0      0.00%     62.16% # Class of executed instruction. (Count)
system.cpu2.exec_context.thread_0.statExecutedInstType::MemRead   1210643354     23.15%     85.31% # Class of executed instruction. (Count)
system.cpu2.exec_context.thread_0.statExecutedInstType::MemWrite    283889634      5.43%     90.74% # Class of executed instruction. (Count)
system.cpu2.exec_context.thread_0.statExecutedInstType::FloatMemRead    322360402      6.16%     96.90% # Class of executed instruction. (Count)
system.cpu2.exec_context.thread_0.statExecutedInstType::FloatMemWrite    162179314      3.10%    100.00% # Class of executed instruction. (Count)
system.cpu2.exec_context.thread_0.statExecutedInstType::IprAccess            0      0.00%    100.00% # Class of executed instruction. (Count)
system.cpu2.exec_context.thread_0.statExecutedInstType::InstPrefetch            0      0.00%    100.00% # Class of executed instruction. (Count)
system.cpu2.exec_context.thread_0.statExecutedInstType::total   5230673090                       # Class of executed instruction. (Count)
system.cpu2.interrupts.clk_domain.clock          8000                       # Clock period in ticks (Tick)
system.cpu2.mmu.dtb.rdAccesses             1539458153                       # TLB accesses on read requests (Count)
system.cpu2.mmu.dtb.wrAccesses              446081088                       # TLB accesses on write requests (Count)
system.cpu2.mmu.dtb.rdMisses                   263718                       # TLB misses on read requests (Count)
system.cpu2.mmu.dtb.wrMisses                    74503                       # TLB misses on write requests (Count)
system.cpu2.mmu.dtb.walker.power_state.pwrStateResidencyTicks::UNDEFINED 8228072672000                       # Cumulative time (in ticks) in various power states (Tick)
system.cpu2.mmu.itb.rdAccesses                      0                       # TLB accesses on read requests (Count)
system.cpu2.mmu.itb.wrAccesses             4983477680                       # TLB accesses on write requests (Count)
system.cpu2.mmu.itb.rdMisses                        0                       # TLB misses on read requests (Count)
system.cpu2.mmu.itb.wrMisses                     3719                       # TLB misses on write requests (Count)
system.cpu2.mmu.itb.walker.power_state.pwrStateResidencyTicks::UNDEFINED 8228072672000                       # Cumulative time (in ticks) in various power states (Tick)
system.cpu2.power_state.numTransitions            336                       # Number of power state transitions (Count)
system.cpu2.power_state.ticksClkGated::samples          169                       # Distribution of time spent in the clock gated state (Tick)
system.cpu2.power_state.ticksClkGated::mean 878792724.852071                       # Distribution of time spent in the clock gated state (Tick)
system.cpu2.power_state.ticksClkGated::stdev 261913318.845196                       # Distribution of time spent in the clock gated state (Tick)
system.cpu2.power_state.ticksClkGated::1000-5e+10          169    100.00%    100.00% # Distribution of time spent in the clock gated state (Tick)
system.cpu2.power_state.ticksClkGated::min_value       617500                       # Distribution of time spent in the clock gated state (Tick)
system.cpu2.power_state.ticksClkGated::max_value    998010000                       # Distribution of time spent in the clock gated state (Tick)
system.cpu2.power_state.ticksClkGated::total          169                       # Distribution of time spent in the clock gated state (Tick)
system.cpu2.power_state.pwrStateResidencyTicks::ON 3339508463500                       # Cumulative time (in ticks) in various power states (Tick)
system.cpu2.power_state.pwrStateResidencyTicks::CLK_GATED 148515970500                       # Cumulative time (in ticks) in various power states (Tick)
system.cpu2.thread_0.numInsts                       0                       # Number of Instructions committed (Count)
system.cpu2.thread_0.numOps                         0                       # Number of Ops committed (Count)
system.cpu2.thread_0.numMemRefs                     0                       # Number of Memory References (Count)
system.cpu3.numCycles                      6976962267                       # Number of cpu cycles simulated (Cycle)
system.cpu3.numWorkItemsStarted                     0                       # Number of work items this cpu started (Count)
system.cpu3.numWorkItemsCompleted                   0                       # Number of work items this cpu completed (Count)
system.cpu3.exec_context.thread_0.numInsts   3533591531                       # Number of instructions committed (Count)
system.cpu3.exec_context.thread_0.numOps   5266575870                       # Number of ops (including micro ops) committed (Count)
system.cpu3.exec_context.thread_0.numIntAluAccesses   4554760952                       # Number of integer alu accesses (Count)
system.cpu3.exec_context.thread_0.numFpAluAccesses   1231111056                       # Number of float alu accesses (Count)
system.cpu3.exec_context.thread_0.numVecAluAccesses            0                       # Number of vector alu accesses (Count)
system.cpu3.exec_context.thread_0.numCallsReturns     23171821                       # Number of times a function call or return occured (Count)
system.cpu3.exec_context.thread_0.numCondCtrlInsts    205159374                       # Number of instructions that are conditional controls (Count)
system.cpu3.exec_context.thread_0.numIntInsts   4554760952                       # Number of integer instructions (Count)
system.cpu3.exec_context.thread_0.numFpInsts   1231111056                       # Number of float instructions (Count)
system.cpu3.exec_context.thread_0.numVecInsts            0                       # Number of vector instructions (Count)
system.cpu3.exec_context.thread_0.numIntRegReads   6089840611                       # Number of times the integer registers were read (Count)
system.cpu3.exec_context.thread_0.numIntRegWrites   3352301155                       # Number of times the integer registers were written (Count)
system.cpu3.exec_context.thread_0.numFpRegReads   1032147684                       # Number of times the floating registers were read (Count)
system.cpu3.exec_context.thread_0.numFpRegWrites   1017581785                       # Number of times the floating registers were written (Count)
system.cpu3.exec_context.thread_0.numVecRegReads            0                       # Number of times the vector registers were read (Count)
system.cpu3.exec_context.thread_0.numVecRegWrites            0                       # Number of times the vector registers were written (Count)
system.cpu3.exec_context.thread_0.numVecPredRegReads            0                       # Number of times the predicate registers were read (Count)
system.cpu3.exec_context.thread_0.numVecPredRegWrites            0                       # Number of times the predicate registers were written (Count)
system.cpu3.exec_context.thread_0.numCCRegReads   1326924786                       # Number of times the CC registers were read (Count)
system.cpu3.exec_context.thread_0.numCCRegWrites   1892279567                       # Number of times the CC registers were written (Count)
system.cpu3.exec_context.thread_0.numMiscRegReads   2466227986                       # Number of times the Misc registers were read (Count)
system.cpu3.exec_context.thread_0.numMiscRegWrites       178476                       # Number of times the Misc registers were written (Count)
system.cpu3.exec_context.thread_0.numMemRefs   1967645797                       # Number of memory refs (Count)
system.cpu3.exec_context.thread_0.numLoadInsts   1518394405                       # Number of load instructions (Count)
system.cpu3.exec_context.thread_0.numStoreInsts    449251392                       # Number of store instructions (Count)
system.cpu3.exec_context.thread_0.numIdleCycles 279842339.010570                       # Number of idle cycles (Cycle)
system.cpu3.exec_context.thread_0.numBusyCycles 6697119927.989430                       # Number of busy cycles (Cycle)
system.cpu3.exec_context.thread_0.notIdleFraction     0.959891                       # Percentage of non-idle cycles (Ratio)
system.cpu3.exec_context.thread_0.idleFraction     0.040109                       # Percentage of idle cycles (Ratio)
system.cpu3.exec_context.thread_0.numBranches    248181889                       # Number of branches fetched (Count)
system.cpu3.exec_context.thread_0.statExecutedInstType::No_OpClass        43537      0.00%      0.00% # Class of executed instruction. (Count)
system.cpu3.exec_context.thread_0.statExecutedInstType::IntAlu   2571992500     48.84%     48.84% # Class of executed instruction. (Count)
system.cpu3.exec_context.thread_0.statExecutedInstType::IntMult      6855325      0.13%     48.97% # Class of executed instruction. (Count)
system.cpu3.exec_context.thread_0.statExecutedInstType::IntDiv      3840514      0.07%     49.04% # Class of executed instruction. (Count)
system.cpu3.exec_context.thread_0.statExecutedInstType::FloatAdd    378334458      7.18%     56.22% # Class of executed instruction. (Count)
system.cpu3.exec_context.thread_0.statExecutedInstType::FloatCmp            0      0.00%     56.22% # Class of executed instruction. (Count)
system.cpu3.exec_context.thread_0.statExecutedInstType::FloatCvt         6816      0.00%     56.22% # Class of executed instruction. (Count)
system.cpu3.exec_context.thread_0.statExecutedInstType::FloatMult            0      0.00%     56.22% # Class of executed instruction. (Count)
system.cpu3.exec_context.thread_0.statExecutedInstType::FloatMultAcc            0      0.00%     56.22% # Class of executed instruction. (Count)
system.cpu3.exec_context.thread_0.statExecutedInstType::FloatDiv            0      0.00%     56.22% # Class of executed instruction. (Count)
system.cpu3.exec_context.thread_0.statExecutedInstType::FloatMisc            0      0.00%     56.22% # Class of executed instruction. (Count)
system.cpu3.exec_context.thread_0.statExecutedInstType::FloatSqrt            0      0.00%     56.22% # Class of executed instruction. (Count)
system.cpu3.exec_context.thread_0.statExecutedInstType::SimdAdd         3366      0.00%     56.22% # Class of executed instruction. (Count)
system.cpu3.exec_context.thread_0.statExecutedInstType::SimdAddAcc            0      0.00%     56.22% # Class of executed instruction. (Count)
system.cpu3.exec_context.thread_0.statExecutedInstType::SimdAlu     32510308      0.62%     56.84% # Class of executed instruction. (Count)
system.cpu3.exec_context.thread_0.statExecutedInstType::SimdCmp            0      0.00%     56.84% # Class of executed instruction. (Count)
system.cpu3.exec_context.thread_0.statExecutedInstType::SimdCvt        16644      0.00%     56.84% # Class of executed instruction. (Count)
system.cpu3.exec_context.thread_0.statExecutedInstType::SimdMisc     31696434      0.60%     57.44% # Class of executed instruction. (Count)
system.cpu3.exec_context.thread_0.statExecutedInstType::SimdMult            0      0.00%     57.44% # Class of executed instruction. (Count)
system.cpu3.exec_context.thread_0.statExecutedInstType::SimdMultAcc            0      0.00%     57.44% # Class of executed instruction. (Count)
system.cpu3.exec_context.thread_0.statExecutedInstType::SimdShift         1674      0.00%     57.44% # Class of executed instruction. (Count)
system.cpu3.exec_context.thread_0.statExecutedInstType::SimdShiftAcc            0      0.00%     57.44% # Class of executed instruction. (Count)
system.cpu3.exec_context.thread_0.statExecutedInstType::SimdDiv            0      0.00%     57.44% # Class of executed instruction. (Count)
system.cpu3.exec_context.thread_0.statExecutedInstType::SimdSqrt            0      0.00%     57.44% # Class of executed instruction. (Count)
system.cpu3.exec_context.thread_0.statExecutedInstType::SimdFloatAdd    119344018      2.27%     59.71% # Class of executed instruction. (Count)
system.cpu3.exec_context.thread_0.statExecutedInstType::SimdFloatAlu            0      0.00%     59.71% # Class of executed instruction. (Count)
system.cpu3.exec_context.thread_0.statExecutedInstType::SimdFloatCmp            0      0.00%     59.71% # Class of executed instruction. (Count)
system.cpu3.exec_context.thread_0.statExecutedInstType::SimdFloatCvt     96698447      1.84%     61.55% # Class of executed instruction. (Count)
system.cpu3.exec_context.thread_0.statExecutedInstType::SimdFloatDiv      2100308      0.04%     61.59% # Class of executed instruction. (Count)
system.cpu3.exec_context.thread_0.statExecutedInstType::SimdFloatMisc            0      0.00%     61.59% # Class of executed instruction. (Count)
system.cpu3.exec_context.thread_0.statExecutedInstType::SimdFloatMult     53916747      1.02%     62.61% # Class of executed instruction. (Count)
system.cpu3.exec_context.thread_0.statExecutedInstType::SimdFloatMultAcc            0      0.00%     62.61% # Class of executed instruction. (Count)
system.cpu3.exec_context.thread_0.statExecutedInstType::SimdFloatSqrt      1570341      0.03%     62.64% # Class of executed instruction. (Count)
system.cpu3.exec_context.thread_0.statExecutedInstType::SimdReduceAdd            0      0.00%     62.64% # Class of executed instruction. (Count)
system.cpu3.exec_context.thread_0.statExecutedInstType::SimdReduceAlu            0      0.00%     62.64% # Class of executed instruction. (Count)
system.cpu3.exec_context.thread_0.statExecutedInstType::SimdReduceCmp            0      0.00%     62.64% # Class of executed instruction. (Count)
system.cpu3.exec_context.thread_0.statExecutedInstType::SimdFloatReduceAdd            0      0.00%     62.64% # Class of executed instruction. (Count)
system.cpu3.exec_context.thread_0.statExecutedInstType::SimdFloatReduceCmp            0      0.00%     62.64% # Class of executed instruction. (Count)
system.cpu3.exec_context.thread_0.statExecutedInstType::SimdAes            0      0.00%     62.64% # Class of executed instruction. (Count)
system.cpu3.exec_context.thread_0.statExecutedInstType::SimdAesMix            0      0.00%     62.64% # Class of executed instruction. (Count)
system.cpu3.exec_context.thread_0.statExecutedInstType::SimdSha1Hash            0      0.00%     62.64% # Class of executed instruction. (Count)
system.cpu3.exec_context.thread_0.statExecutedInstType::SimdSha1Hash2            0      0.00%     62.64% # Class of executed instruction. (Count)
system.cpu3.exec_context.thread_0.statExecutedInstType::SimdSha256Hash            0      0.00%     62.64% # Class of executed instruction. (Count)
system.cpu3.exec_context.thread_0.statExecutedInstType::SimdSha256Hash2            0      0.00%     62.64% # Class of executed instruction. (Count)
system.cpu3.exec_context.thread_0.statExecutedInstType::SimdShaSigma2            0      0.00%     62.64% # Class of executed instruction. (Count)
system.cpu3.exec_context.thread_0.statExecutedInstType::SimdShaSigma3            0      0.00%     62.64% # Class of executed instruction. (Count)
system.cpu3.exec_context.thread_0.statExecutedInstType::SimdPredAlu            0      0.00%     62.64% # Class of executed instruction. (Count)
system.cpu3.exec_context.thread_0.statExecutedInstType::MemRead   1193216732     22.66%     85.30% # Class of executed instruction. (Count)
system.cpu3.exec_context.thread_0.statExecutedInstType::MemWrite    282456933      5.36%     90.66% # Class of executed instruction. (Count)
system.cpu3.exec_context.thread_0.statExecutedInstType::FloatMemRead    325177673      6.17%     96.83% # Class of executed instruction. (Count)
system.cpu3.exec_context.thread_0.statExecutedInstType::FloatMemWrite    166794459      3.17%    100.00% # Class of executed instruction. (Count)
system.cpu3.exec_context.thread_0.statExecutedInstType::IprAccess            0      0.00%    100.00% # Class of executed instruction. (Count)
system.cpu3.exec_context.thread_0.statExecutedInstType::InstPrefetch            0      0.00%    100.00% # Class of executed instruction. (Count)
system.cpu3.exec_context.thread_0.statExecutedInstType::total   5266577234                       # Class of executed instruction. (Count)
system.cpu3.interrupts.clk_domain.clock          8000                       # Clock period in ticks (Tick)
system.cpu3.mmu.dtb.rdAccesses             1524400516                       # TLB accesses on read requests (Count)
system.cpu3.mmu.dtb.wrAccesses              449262013                       # TLB accesses on write requests (Count)
system.cpu3.mmu.dtb.rdMisses                   266440                       # TLB misses on read requests (Count)
system.cpu3.mmu.dtb.wrMisses                    66197                       # TLB misses on write requests (Count)
system.cpu3.mmu.dtb.walker.power_state.pwrStateResidencyTicks::UNDEFINED 8228072672000                       # Cumulative time (in ticks) in various power states (Tick)
system.cpu3.mmu.itb.rdAccesses                      0                       # TLB accesses on read requests (Count)
system.cpu3.mmu.itb.wrAccesses             4962933299                       # TLB accesses on write requests (Count)
system.cpu3.mmu.itb.rdMisses                        0                       # TLB misses on read requests (Count)
system.cpu3.mmu.itb.wrMisses                     3150                       # TLB misses on write requests (Count)
system.cpu3.mmu.itb.walker.power_state.pwrStateResidencyTicks::UNDEFINED 8228072672000                       # Cumulative time (in ticks) in various power states (Tick)
system.cpu3.power_state.numTransitions            304                       # Number of power state transitions (Count)
system.cpu3.power_state.ticksClkGated::samples          153                       # Distribution of time spent in the clock gated state (Tick)
system.cpu3.power_state.ticksClkGated::mean 919512493.464052                       # Distribution of time spent in the clock gated state (Tick)
system.cpu3.power_state.ticksClkGated::stdev 236356549.282380                       # Distribution of time spent in the clock gated state (Tick)
system.cpu3.power_state.ticksClkGated::1000-5e+10          153    100.00%    100.00% # Distribution of time spent in the clock gated state (Tick)
system.cpu3.power_state.ticksClkGated::min_value     62672500                       # Distribution of time spent in the clock gated state (Tick)
system.cpu3.power_state.ticksClkGated::max_value    997974000                       # Distribution of time spent in the clock gated state (Tick)
system.cpu3.power_state.ticksClkGated::total          153                       # Distribution of time spent in the clock gated state (Tick)
system.cpu3.power_state.pwrStateResidencyTicks::ON 3347893763500                       # Cumulative time (in ticks) in various power states (Tick)
system.cpu3.power_state.pwrStateResidencyTicks::CLK_GATED 140685411500                       # Cumulative time (in ticks) in various power states (Tick)
system.cpu3.thread_0.numInsts                       0                       # Number of Instructions committed (Count)
system.cpu3.thread_0.numOps                         0                       # Number of Ops committed (Count)
system.cpu3.thread_0.numMemRefs                     0                       # Number of Memory References (Count)
system.cpu_clk_domain.clock                       500                       # Clock period in ticks (Tick)
system.cpu_voltage_domain.voltage                   1                       # Voltage in Volts (Volt)
system.iobridge.power_state.pwrStateResidencyTicks::UNDEFINED 8228072672000                       # Cumulative time (in ticks) in various power states (Tick)
system.iobus.transDist::ReadReq                  7214                       # Transaction distribution (Count)
system.iobus.transDist::ReadResp                 7214                       # Transaction distribution (Count)
system.iobus.transDist::WriteReq                 6567                       # Transaction distribution (Count)
system.iobus.transDist::WriteResp                6567                       # Transaction distribution (Count)
system.iobus.pktCount_system.bridge.mem_side_port::system.pc.south_bridge.ide.pio          414                       # Packet count per connected requestor and responder (Count)
system.iobus.pktCount_system.bridge.mem_side_port::system.pc.com_1.pio         5472                       # Packet count per connected requestor and responder (Count)
system.iobus.pktCount_system.bridge.mem_side_port::total         5886                       # Packet count per connected requestor and responder (Count)
system.iobus.pktCount_system.pc.south_bridge.ide.dma::system.iobridge.cpu_side_port        20290                       # Packet count per connected requestor and responder (Count)
system.iobus.pktCount_system.pc.south_bridge.ide.dma::total        20290                       # Packet count per connected requestor and responder (Count)
system.iobus.pktCount_system.pc.south_bridge.io_apic.int_request::system.apicbridge.cpu_side_port         1386                       # Packet count per connected requestor and responder (Count)
system.iobus.pktCount_system.pc.south_bridge.io_apic.int_request::total         1386                       # Packet count per connected requestor and responder (Count)
system.iobus.pktCount::total                    27562                       # Packet count per connected requestor and responder (Count)
system.iobus.pktSize_system.bridge.mem_side_port::system.pc.south_bridge.ide.pio          234                       # Cumulative packet size per connected requestor and responder (Byte)
system.iobus.pktSize_system.bridge.mem_side_port::system.pc.com_1.pio         2736                       # Cumulative packet size per connected requestor and responder (Byte)
system.iobus.pktSize_system.bridge.mem_side_port::total         2970                       # Cumulative packet size per connected requestor and responder (Byte)
system.iobus.pktSize_system.pc.south_bridge.ide.dma::system.iobridge.cpu_side_port       643848                       # Cumulative packet size per connected requestor and responder (Byte)
system.iobus.pktSize_system.pc.south_bridge.ide.dma::total       643848                       # Cumulative packet size per connected requestor and responder (Byte)
system.iobus.pktSize_system.pc.south_bridge.io_apic.int_request::system.apicbridge.cpu_side_port         2772                       # Cumulative packet size per connected requestor and responder (Byte)
system.iobus.pktSize_system.pc.south_bridge.io_apic.int_request::total         2772                       # Cumulative packet size per connected requestor and responder (Byte)
system.iobus.pktSize::total                    649590                       # Cumulative packet size per connected requestor and responder (Byte)
system.iobus.power_state.pwrStateResidencyTicks::UNDEFINED 8228072672000                       # Cumulative time (in ticks) in various power states (Tick)
system.mem_ctrls.priorityMinLatency      0.000000000000                       # per QoS priority minimum request to response latency (Second)
system.mem_ctrls.priorityMaxLatency      0.000000000000                       # per QoS priority maximum request to response latency (Second)
system.mem_ctrls.numReadWriteTurnArounds            0                       # Number of turnarounds from READ to WRITE (Count)
system.mem_ctrls.numWriteReadTurnArounds            0                       # Number of turnarounds from WRITE to READ (Count)
system.mem_ctrls.numStayReadState                   0                       # Number of times bus staying in READ state (Count)
system.mem_ctrls.numStayWriteState                  0                       # Number of times bus staying in WRITE state (Count)
system.mem_ctrls.readReqs                           0                       # Number of read requests accepted (Count)
system.mem_ctrls.writeReqs                          0                       # Number of write requests accepted (Count)
system.mem_ctrls.readBursts                         0                       # Number of controller read bursts, including those serviced by the write queue (Count)
system.mem_ctrls.writeBursts                        0                       # Number of controller write bursts, including those merged in the write queue (Count)
system.mem_ctrls.servicedByWrQ                      0                       # Number of controller read bursts serviced by the write queue (Count)
system.mem_ctrls.mergedWrBursts                     0                       # Number of controller write bursts merged with an existing one (Count)
system.mem_ctrls.neitherReadNorWriteReqs            0                       # Number of requests that are neither read nor write (Count)
system.mem_ctrls.avgRdQLen                       0.00                       # Average read queue length when enqueuing ((Count/Tick))
system.mem_ctrls.avgWrQLen                       0.00                       # Average write queue length when enqueuing ((Count/Tick))
system.mem_ctrls.numRdRetry                         0                       # Number of times read queue was full causing retry (Count)
system.mem_ctrls.numWrRetry                         0                       # Number of times write queue was full causing retry (Count)
system.mem_ctrls.readPktSize::0                     0                       # Read request sizes (log2) (Count)
system.mem_ctrls.readPktSize::1                     0                       # Read request sizes (log2) (Count)
system.mem_ctrls.readPktSize::2                     0                       # Read request sizes (log2) (Count)
system.mem_ctrls.readPktSize::3                     0                       # Read request sizes (log2) (Count)
system.mem_ctrls.readPktSize::4                     0                       # Read request sizes (log2) (Count)
system.mem_ctrls.readPktSize::5                     0                       # Read request sizes (log2) (Count)
system.mem_ctrls.readPktSize::6                     0                       # Read request sizes (log2) (Count)
system.mem_ctrls.writePktSize::0                    0                       # Write request sizes (log2) (Count)
system.mem_ctrls.writePktSize::1                    0                       # Write request sizes (log2) (Count)
system.mem_ctrls.writePktSize::2                    0                       # Write request sizes (log2) (Count)
system.mem_ctrls.writePktSize::3                    0                       # Write request sizes (log2) (Count)
system.mem_ctrls.writePktSize::4                    0                       # Write request sizes (log2) (Count)
system.mem_ctrls.writePktSize::5                    0                       # Write request sizes (log2) (Count)
system.mem_ctrls.writePktSize::6                    0                       # Write request sizes (log2) (Count)
system.mem_ctrls.rdQLenPdf::0                       0                       # What read queue length does an incoming req see (Count)
system.mem_ctrls.rdQLenPdf::1                       0                       # What read queue length does an incoming req see (Count)
system.mem_ctrls.rdQLenPdf::2                       0                       # What read queue length does an incoming req see (Count)
system.mem_ctrls.rdQLenPdf::3                       0                       # What read queue length does an incoming req see (Count)
system.mem_ctrls.rdQLenPdf::4                       0                       # What read queue length does an incoming req see (Count)
system.mem_ctrls.rdQLenPdf::5                       0                       # What read queue length does an incoming req see (Count)
system.mem_ctrls.rdQLenPdf::6                       0                       # What read queue length does an incoming req see (Count)
system.mem_ctrls.rdQLenPdf::7                       0                       # What read queue length does an incoming req see (Count)
system.mem_ctrls.rdQLenPdf::8                       0                       # What read queue length does an incoming req see (Count)
system.mem_ctrls.rdQLenPdf::9                       0                       # What read queue length does an incoming req see (Count)
system.mem_ctrls.rdQLenPdf::10                      0                       # What read queue length does an incoming req see (Count)
system.mem_ctrls.rdQLenPdf::11                      0                       # What read queue length does an incoming req see (Count)
system.mem_ctrls.rdQLenPdf::12                      0                       # What read queue length does an incoming req see (Count)
system.mem_ctrls.rdQLenPdf::13                      0                       # What read queue length does an incoming req see (Count)
system.mem_ctrls.rdQLenPdf::14                      0                       # What read queue length does an incoming req see (Count)
system.mem_ctrls.rdQLenPdf::15                      0                       # What read queue length does an incoming req see (Count)
system.mem_ctrls.rdQLenPdf::16                      0                       # What read queue length does an incoming req see (Count)
system.mem_ctrls.rdQLenPdf::17                      0                       # What read queue length does an incoming req see (Count)
system.mem_ctrls.rdQLenPdf::18                      0                       # What read queue length does an incoming req see (Count)
system.mem_ctrls.rdQLenPdf::19                      0                       # What read queue length does an incoming req see (Count)
system.mem_ctrls.rdQLenPdf::20                      0                       # What read queue length does an incoming req see (Count)
system.mem_ctrls.rdQLenPdf::21                      0                       # What read queue length does an incoming req see (Count)
system.mem_ctrls.rdQLenPdf::22                      0                       # What read queue length does an incoming req see (Count)
system.mem_ctrls.rdQLenPdf::23                      0                       # What read queue length does an incoming req see (Count)
system.mem_ctrls.rdQLenPdf::24                      0                       # What read queue length does an incoming req see (Count)
system.mem_ctrls.rdQLenPdf::25                      0                       # What read queue length does an incoming req see (Count)
system.mem_ctrls.rdQLenPdf::26                      0                       # What read queue length does an incoming req see (Count)
system.mem_ctrls.rdQLenPdf::27                      0                       # What read queue length does an incoming req see (Count)
system.mem_ctrls.rdQLenPdf::28                      0                       # What read queue length does an incoming req see (Count)
system.mem_ctrls.rdQLenPdf::29                      0                       # What read queue length does an incoming req see (Count)
system.mem_ctrls.rdQLenPdf::30                      0                       # What read queue length does an incoming req see (Count)
system.mem_ctrls.rdQLenPdf::31                      0                       # What read queue length does an incoming req see (Count)
system.mem_ctrls.wrQLenPdf::0                       0                       # What write queue length does an incoming req see (Count)
system.mem_ctrls.wrQLenPdf::1                       0                       # What write queue length does an incoming req see (Count)
system.mem_ctrls.wrQLenPdf::2                       0                       # What write queue length does an incoming req see (Count)
system.mem_ctrls.wrQLenPdf::3                       0                       # What write queue length does an incoming req see (Count)
system.mem_ctrls.wrQLenPdf::4                       0                       # What write queue length does an incoming req see (Count)
system.mem_ctrls.wrQLenPdf::5                       0                       # What write queue length does an incoming req see (Count)
system.mem_ctrls.wrQLenPdf::6                       0                       # What write queue length does an incoming req see (Count)
system.mem_ctrls.wrQLenPdf::7                       0                       # What write queue length does an incoming req see (Count)
system.mem_ctrls.wrQLenPdf::8                       0                       # What write queue length does an incoming req see (Count)
system.mem_ctrls.wrQLenPdf::9                       0                       # What write queue length does an incoming req see (Count)
system.mem_ctrls.wrQLenPdf::10                      0                       # What write queue length does an incoming req see (Count)
system.mem_ctrls.wrQLenPdf::11                      0                       # What write queue length does an incoming req see (Count)
system.mem_ctrls.wrQLenPdf::12                      0                       # What write queue length does an incoming req see (Count)
system.mem_ctrls.wrQLenPdf::13                      0                       # What write queue length does an incoming req see (Count)
system.mem_ctrls.wrQLenPdf::14                      0                       # What write queue length does an incoming req see (Count)
system.mem_ctrls.wrQLenPdf::15                      0                       # What write queue length does an incoming req see (Count)
system.mem_ctrls.wrQLenPdf::16                      0                       # What write queue length does an incoming req see (Count)
system.mem_ctrls.wrQLenPdf::17                      0                       # What write queue length does an incoming req see (Count)
system.mem_ctrls.wrQLenPdf::18                      0                       # What write queue length does an incoming req see (Count)
system.mem_ctrls.wrQLenPdf::19                      0                       # What write queue length does an incoming req see (Count)
system.mem_ctrls.wrQLenPdf::20                      0                       # What write queue length does an incoming req see (Count)
system.mem_ctrls.wrQLenPdf::21                      0                       # What write queue length does an incoming req see (Count)
system.mem_ctrls.wrQLenPdf::22                      0                       # What write queue length does an incoming req see (Count)
system.mem_ctrls.wrQLenPdf::23                      0                       # What write queue length does an incoming req see (Count)
system.mem_ctrls.wrQLenPdf::24                      0                       # What write queue length does an incoming req see (Count)
system.mem_ctrls.wrQLenPdf::25                      0                       # What write queue length does an incoming req see (Count)
system.mem_ctrls.wrQLenPdf::26                      0                       # What write queue length does an incoming req see (Count)
system.mem_ctrls.wrQLenPdf::27                      0                       # What write queue length does an incoming req see (Count)
system.mem_ctrls.wrQLenPdf::28                      0                       # What write queue length does an incoming req see (Count)
system.mem_ctrls.wrQLenPdf::29                      0                       # What write queue length does an incoming req see (Count)
system.mem_ctrls.wrQLenPdf::30                      0                       # What write queue length does an incoming req see (Count)
system.mem_ctrls.wrQLenPdf::31                      0                       # What write queue length does an incoming req see (Count)
system.mem_ctrls.wrQLenPdf::32                      0                       # What write queue length does an incoming req see (Count)
system.mem_ctrls.wrQLenPdf::33                      0                       # What write queue length does an incoming req see (Count)
system.mem_ctrls.wrQLenPdf::34                      0                       # What write queue length does an incoming req see (Count)
system.mem_ctrls.wrQLenPdf::35                      0                       # What write queue length does an incoming req see (Count)
system.mem_ctrls.wrQLenPdf::36                      0                       # What write queue length does an incoming req see (Count)
system.mem_ctrls.wrQLenPdf::37                      0                       # What write queue length does an incoming req see (Count)
system.mem_ctrls.wrQLenPdf::38                      0                       # What write queue length does an incoming req see (Count)
[...]
system.membus.pktCount_system.cpu3.dcache_port::system.cpu3.interrupts.pio         8834                       # Packet count per connected requestor and responder (Count)
system.membus.pktCount_system.cpu3.dcache_port::system.mem_ctrls.port   3950735276                       # Packet count per connected requestor and responder (Count)
system.membus.pktCount_system.cpu3.dcache_port::total   3950744110                       # Packet count per connected requestor and responder (Count)
system.membus.pktCount_system.cpu3.mmu.itb.walker.port::system.mem_ctrls.port        30350                       # Packet count per connected requestor and responder (Count)
system.membus.pktCount_system.cpu3.mmu.itb.walker.port::total        30350                       # Packet count per connected requestor and responder (Count)
system.membus.pktCount_system.cpu3.mmu.dtb.walker.port::system.mem_ctrls.port      2639972                       # Packet count per connected requestor and responder (Count)
system.membus.pktCount_system.cpu3.mmu.dtb.walker.port::total      2639972                       # Packet count per connected requestor and responder (Count)
system.membus.pktCount_system.cpu3.interrupts.int_requestor::system.cpu0.interrupts.int_responder          366                       # Packet count per connected requestor and responder (Count)
system.membus.pktCount_system.cpu3.interrupts.int_requestor::system.cpu1.interrupts.int_responder           58                       # Packet count per connected requestor and responder (Count)
system.membus.pktCount_system.cpu3.interrupts.int_requestor::system.cpu2.interrupts.int_responder           94                       # Packet count per connected requestor and responder (Count)
system.membus.pktCount_system.cpu3.interrupts.int_requestor::total          518                       # Packet count per connected requestor and responder (Count)
system.membus.pktCount::total             56289977624                       # Packet count per connected requestor and responder (Count)
system.membus.pktSize_system.apicbridge.mem_side_port::system.cpu1.interrupts.int_responder         4228                       # Cumulative packet size per connected requestor and responder (Byte)
system.membus.pktSize_system.apicbridge.mem_side_port::total         4228                       # Cumulative packet size per connected requestor and responder (Byte)
system.membus.pktSize_system.iobridge.mem_side_port::system.mem_ctrls.port       652056                       # Cumulative packet size per connected requestor and responder (Byte)
system.membus.pktSize_system.iobridge.mem_side_port::total       652056                       # Cumulative packet size per connected requestor and responder (Byte)
system.membus.pktSize_system.cpu0.icache_port::system.mem_ctrls.port  41340423200                       # Cumulative packet size per connected requestor and responder (Byte)
system.membus.pktSize_system.cpu0.icache_port::total  41340423200                       # Cumulative packet size per connected requestor and responder (Byte)
system.membus.pktSize_system.cpu0.dcache_port::system.bridge.cpu_side_port            2                       # Cumulative packet size per connected requestor and responder (Byte)
system.membus.pktSize_system.cpu0.dcache_port::system.cpu0.interrupts.pio        17520                       # Cumulative packet size per connected requestor and responder (Byte)
system.membus.pktSize_system.cpu0.dcache_port::system.mem_ctrls.port  12092925951                       # Cumulative packet size per connected requestor and responder (Byte)
system.membus.pktSize_system.cpu0.dcache_port::total  12092943473                       # Cumulative packet size per connected requestor and responder (Byte)
system.membus.pktSize_system.cpu0.mmu.itb.walker.port::system.mem_ctrls.port       116960                       # Cumulative packet size per connected requestor and responder (Byte)
system.membus.pktSize_system.cpu0.mmu.itb.walker.port::total       116960                       # Cumulative packet size per connected requestor and responder (Byte)
system.membus.pktSize_system.cpu0.mmu.dtb.walker.port::system.mem_ctrls.port     16322544                       # Cumulative packet size per connected requestor and responder (Byte)
system.membus.pktSize_system.cpu0.mmu.dtb.walker.port::total     16322544                       # Cumulative packet size per connected requestor and responder (Byte)
system.membus.pktSize_system.cpu0.interrupts.int_requestor::system.cpu1.interrupts.int_responder           88                       # Cumulative packet size per connected requestor and responder (Byte)
system.membus.pktSize_system.cpu0.interrupts.int_requestor::system.cpu2.interrupts.int_responder          528                       # Cumulative packet size per connected requestor and responder (Byte)
system.membus.pktSize_system.cpu0.interrupts.int_requestor::system.cpu3.interrupts.int_responder          224                       # Cumulative packet size per connected requestor and responder (Byte)
system.membus.pktSize_system.cpu0.interrupts.int_requestor::total          840                       # Cumulative packet size per connected requestor and responder (Byte)
system.membus.pktSize_system.cpu1.icache_port::system.mem_ctrls.port  40560517408                       # Cumulative packet size per connected requestor and responder (Byte)
system.membus.pktSize_system.cpu1.icache_port::total  40560517408                       # Cumulative packet size per connected requestor and responder (Byte)
system.membus.pktSize_system.cpu1.dcache_port::system.bridge.cpu_side_port         4173                       # Cumulative packet size per connected requestor and responder (Byte)
system.membus.pktSize_system.cpu1.dcache_port::system.cpu1.interrupts.pio        16880                       # Cumulative packet size per connected requestor and responder (Byte)
system.membus.pktSize_system.cpu1.dcache_port::system.mem_ctrls.port  11128978362                       # Cumulative packet size per connected requestor and responder (Byte)
system.membus.pktSize_system.cpu1.dcache_port::total  11128999415                       # Cumulative packet size per connected requestor and responder (Byte)
system.membus.pktSize_system.cpu1.mmu.itb.walker.port::system.mem_ctrls.port        39072                       # Cumulative packet size per connected requestor and responder (Byte)
system.membus.pktSize_system.cpu1.mmu.itb.walker.port::total        39072                       # Cumulative packet size per connected requestor and responder (Byte)
system.membus.pktSize_system.cpu1.mmu.dtb.walker.port::system.mem_ctrls.port     18280840                       # Cumulative packet size per connected requestor and responder (Byte)
system.membus.pktSize_system.cpu1.mmu.dtb.walker.port::total     18280840                       # Cumulative packet size per connected requestor and responder (Byte)
system.membus.pktSize_system.cpu1.interrupts.int_requestor::system.cpu0.interrupts.int_responder          292                       # Cumulative packet size per connected requestor and responder (Byte)
system.membus.pktSize_system.cpu1.interrupts.int_requestor::system.cpu2.interrupts.int_responder          244                       # Cumulative packet size per connected requestor and responder (Byte)
system.membus.pktSize_system.cpu1.interrupts.int_requestor::system.cpu3.interrupts.int_responder          316                       # Cumulative packet size per connected requestor and responder (Byte)
system.membus.pktSize_system.cpu1.interrupts.int_requestor::total          852                       # Cumulative packet size per connected requestor and responder (Byte)
system.membus.pktSize_system.cpu2.icache_port::system.mem_ctrls.port  39912449720                       # Cumulative packet size per connected requestor and responder (Byte)
system.membus.pktSize_system.cpu2.icache_port::total  39912449720                       # Cumulative packet size per connected requestor and responder (Byte)
system.membus.pktSize_system.cpu2.dcache_port::system.bridge.cpu_side_port          294                       # Cumulative packet size per connected requestor and responder (Byte)
system.membus.pktSize_system.cpu2.dcache_port::system.cpu2.interrupts.pio        17108                       # Cumulative packet size per connected requestor and responder (Byte)
system.membus.pktSize_system.cpu2.dcache_port::system.mem_ctrls.port  11714701424                       # Cumulative packet size per connected requestor and responder (Byte)
system.membus.pktSize_system.cpu2.dcache_port::total  11714718826                       # Cumulative packet size per connected requestor and responder (Byte)
system.membus.pktSize_system.cpu2.mmu.itb.walker.port::system.mem_ctrls.port       156456                       # Cumulative packet size per connected requestor and responder (Byte)
system.membus.pktSize_system.cpu2.mmu.itb.walker.port::total       156456                       # Cumulative packet size per connected requestor and responder (Byte)
system.membus.pktSize_system.cpu2.mmu.dtb.walker.port::system.mem_ctrls.port     10811552                       # Cumulative packet size per connected requestor and responder (Byte)
system.membus.pktSize_system.cpu2.mmu.dtb.walker.port::total     10811552                       # Cumulative packet size per connected requestor and responder (Byte)
system.membus.pktSize_system.cpu2.interrupts.int_requestor::system.cpu0.interrupts.int_responder          456                       # Cumulative packet size per connected requestor and responder (Byte)
system.membus.pktSize_system.cpu2.interrupts.int_requestor::system.cpu1.interrupts.int_responder          140                       # Cumulative packet size per connected requestor and responder (Byte)
system.membus.pktSize_system.cpu2.interrupts.int_requestor::system.cpu3.interrupts.int_responder          168                       # Cumulative packet size per connected requestor and responder (Byte)
system.membus.pktSize_system.cpu2.interrupts.int_requestor::total          764                       # Cumulative packet size per connected requestor and responder (Byte)
system.membus.pktSize_system.cpu3.icache_port::system.mem_ctrls.port  39741257512                       # Cumulative packet size per connected requestor and responder (Byte)
system.membus.pktSize_system.cpu3.icache_port::total  39741257512                       # Cumulative packet size per connected requestor and responder (Byte)
system.membus.pktSize_system.cpu3.dcache_port::system.cpu3.interrupts.pio        17668                       # Cumulative packet size per connected requestor and responder (Byte)
system.membus.pktSize_system.cpu3.dcache_port::system.mem_ctrls.port  11498161428                       # Cumulative packet size per connected requestor and responder (Byte)
system.membus.pktSize_system.cpu3.dcache_port::total  11498179096                       # Cumulative packet size per connected requestor and responder (Byte)
system.membus.pktSize_system.cpu3.mmu.itb.walker.port::system.mem_ctrls.port       121400                       # Cumulative packet size per connected requestor and responder (Byte)
system.membus.pktSize_system.cpu3.mmu.itb.walker.port::total       121400                       # Cumulative packet size per connected requestor and responder (Byte)
system.membus.pktSize_system.cpu3.mmu.dtb.walker.port::system.mem_ctrls.port     10559888                       # Cumulative packet size per connected requestor and responder (Byte)
system.membus.pktSize_system.cpu3.mmu.dtb.walker.port::total     10559888                       # Cumulative packet size per connected requestor and responder (Byte)
system.membus.pktSize_system.cpu3.interrupts.int_requestor::system.cpu0.interrupts.int_responder          732                       # Cumulative packet size per connected requestor and responder (Byte)
system.membus.pktSize_system.cpu3.interrupts.int_requestor::system.cpu1.interrupts.int_responder          116                       # Cumulative packet size per connected requestor and responder (Byte)
system.membus.pktSize_system.cpu3.interrupts.int_requestor::system.cpu2.interrupts.int_responder          188                       # Cumulative packet size per connected requestor and responder (Byte)
system.membus.pktSize_system.cpu3.interrupts.int_requestor::total         1036                       # Cumulative packet size per connected requestor and responder (Byte)
system.membus.pktSize::total             208046557138                       # Cumulative packet size per connected requestor and responder (Byte)
system.membus.snoops                                0                       # Total snoops (Count)
system.membus.snoopTraffic                          0                       # Total snoop traffic (Byte)
system.membus.snoopFanout::samples        28144988812                       # Request fanout histogram (Count)
system.membus.snoopFanout::mean                     0                       # Request fanout histogram (Count)
system.membus.snoopFanout::stdev                    0                       # Request fanout histogram (Count)
system.membus.snoopFanout::underflows               0      0.00%      0.00% # Request fanout histogram (Count)
system.membus.snoopFanout::0              28144988812    100.00%    100.00% # Request fanout histogram (Count)
system.membus.snoopFanout::1                        0      0.00%    100.00% # Request fanout histogram (Count)
system.membus.snoopFanout::2                        0      0.00%    100.00% # Request fanout histogram (Count)
system.membus.snoopFanout::3                        0      0.00%    100.00% # Request fanout histogram (Count)
system.membus.snoopFanout::4                        0      0.00%    100.00% # Request fanout histogram (Count)
system.membus.snoopFanout::overflows                0      0.00%    100.00% # Request fanout histogram (Count)
system.membus.snoopFanout::min_value                0                       # Request fanout histogram (Count)
system.membus.snoopFanout::max_value                0                       # Request fanout histogram (Count)
system.membus.snoopFanout::total          28144988812                       # Request fanout histogram (Count)
system.membus.badaddr_responder.power_state.pwrStateResidencyTicks::UNDEFINED 8253496150500                       # Cumulative time (in ticks) in various power states (Tick)
system.membus.power_state.pwrStateResidencyTicks::UNDEFINED 8253496150500                       # Cumulative time (in ticks) in various power states (Tick)
system.membus.snoop_filter.totRequests              0                       # Total number of requests made to the snoop filter. (Count)
system.membus.snoop_filter.hitSingleRequests            0                       # Number of requests hitting in the snoop filter with a single holder of the requested data. (Count)
system.membus.snoop_filter.hitMultiRequests            0                       # Number of requests hitting in the snoop filter with multiple (>1) holders of the requested data. (Count)
system.membus.snoop_filter.totSnoops                0                       # Total number of snoops made to the snoop filter. (Count)
system.membus.snoop_filter.hitSingleSnoops            0                       # Number of snoops hitting in the snoop filter with a single holder of the requested data. (Count)
system.membus.snoop_filter.hitMultiSnoops            0                       # Number of snoops hitting in the snoop filter with multiple (>1) holders of the requested data. (Count)
system.pc.bad_addr.power_state.pwrStateResidencyTicks::UNDEFINED 8253496150500                       # Cumulative time (in ticks) in various power states (Tick)
system.pc.com_1.power_state.pwrStateResidencyTicks::UNDEFINED 8253496150500                       # Cumulative time (in ticks) in various power states (Tick)
system.pc.default_bus.power_state.pwrStateResidencyTicks::UNDEFINED 8253496150500                       # Cumulative time (in ticks) in various power states (Tick)
system.pc.empty_isa.power_state.pwrStateResidencyTicks::UNDEFINED 8253496150500                       # Cumulative time (in ticks) in various power states (Tick)
system.pc.fake_com_2.power_state.pwrStateResidencyTicks::UNDEFINED 8253496150500                       # Cumulative time (in ticks) in various power states (Tick)
system.pc.fake_com_3.power_state.pwrStateResidencyTicks::UNDEFINED 8253496150500                       # Cumulative time (in ticks) in various power states (Tick)
system.pc.fake_com_4.power_state.pwrStateResidencyTicks::UNDEFINED 8253496150500                       # Cumulative time (in ticks) in various power states (Tick)
system.pc.fake_floppy.power_state.pwrStateResidencyTicks::UNDEFINED 8253496150500                       # Cumulative time (in ticks) in various power states (Tick)
system.pc.pci_host.power_state.pwrStateResidencyTicks::UNDEFINED 8253496150500                       # Cumulative time (in ticks) in various power states (Tick)
system.pc.south_bridge.cmos.power_state.pwrStateResidencyTicks::UNDEFINED 8253496150500                       # Cumulative time (in ticks) in various power states (Tick)
system.pc.south_bridge.dma1.power_state.pwrStateResidencyTicks::UNDEFINED 8253496150500                       # Cumulative time (in ticks) in various power states (Tick)
system.pc.south_bridge.ide.disks.IdeDisk.dmaReadFullPages           79                       # Number of full page size DMA reads (not PRD). (Count)
system.pc.south_bridge.ide.disks.IdeDisk.dmaReadBytes       323584                       # Number of bytes transfered via DMA reads (not PRD). (Byte)
system.pc.south_bridge.ide.disks.IdeDisk.dmaReadTxs           79                       # Number of DMA read transactions (not PRD). (Count)
system.pc.south_bridge.ide.disks.IdeDisk.dmaWriteFullPages           80                       # Number of full page size DMA writes. (Count)
system.pc.south_bridge.ide.disks.IdeDisk.dmaWriteBytes       327680                       # Number of bytes transfered via DMA writes. (Byte)
system.pc.south_bridge.ide.disks.IdeDisk.dmaWriteTxs           80                       # Number of DMA write transactions. (Count)
system.pc.south_bridge.ide.power_state.pwrStateResidencyTicks::UNDEFINED 8253496150500                       # Cumulative time (in ticks) in various power states (Tick)
system.pc.south_bridge.io_apic.power_state.pwrStateResidencyTicks::UNDEFINED 8253496150500                       # Cumulative time (in ticks) in various power states (Tick)
system.pc.south_bridge.keyboard.power_state.pwrStateResidencyTicks::UNDEFINED 8253496150500                       # Cumulative time (in ticks) in various power states (Tick)
system.pc.south_bridge.pic1.power_state.pwrStateResidencyTicks::UNDEFINED 8253496150500                       # Cumulative time (in ticks) in various power states (Tick)
system.pc.south_bridge.pic2.power_state.pwrStateResidencyTicks::UNDEFINED 8253496150500                       # Cumulative time (in ticks) in various power states (Tick)
system.pc.south_bridge.pit.power_state.pwrStateResidencyTicks::UNDEFINED 8253496150500                       # Cumulative time (in ticks) in various power states (Tick)
system.pc.south_bridge.speaker.power_state.pwrStateResidencyTicks::UNDEFINED 8253496150500                       # Cumulative time (in ticks) in various power states (Tick)
system.voltage_domain.voltage                       1                       # Voltage in Volts (Volt)
system.workload.inst.arm                            0                       # number of arm instructions executed (Count)
system.workload.inst.quiesce                        0                       # number of quiesce instructions executed (Count)

---------- End Simulation Statistics   ----------
